
---------- Begin Simulation Statistics ----------
simSeconds                                   0.001184                       # Number of seconds simulated (Second)
simTicks                                   1184027000                       # Number of ticks simulated (Tick)
finalTick                                  1184027000                       # Number of ticks from beginning of simulation (restored from checkpoints and never reset) (Tick)
simFreq                                  1000000000000                       # The number of ticks per simulated second ((Tick/Second))
hostSeconds                                     12.06                       # Real time elapsed on the host (Second)
hostTickRate                                 98200389                       # The number of ticks simulated per host second (ticks/s) ((Tick/Second))
hostMemory                                    1224220                       # Number of bytes of host memory used (Byte)
simInsts                                      2849860                       # Number of instructions simulated (Count)
simOps                                        5296197                       # Number of ops (including micro ops) simulated (Count)
hostInstRate                                   236359                       # Simulator instruction rate (inst/s) ((Count/Second))
hostOpRate                                     439250                       # Simulator op (including micro ops) rate (op/s) ((Count/Second))
system.clk_domain.clock                           500                       # Clock period in ticks (Tick)
system.clk_domain.voltage_domain.voltage            1                       # Voltage in Volts (Volt)
system.cpu.numCycles                          2368055                       # Number of cpu cycles simulated (Cycle)
system.cpu.numWorkItemsStarted                      0                       # Number of work items this cpu started (Count)
system.cpu.numWorkItemsCompleted                    0                       # Number of work items this cpu completed (Count)
system.cpu.instsAdded                         5786667                       # Number of instructions added to the IQ (excludes non-spec) (Count)
system.cpu.nonSpecInstsAdded                     6146                       # Number of non-speculative instructions added to the IQ (Count)
system.cpu.instsIssued                        5661336                       # Number of instructions issued (Count)
system.cpu.squashedInstsIssued                   2991                       # Number of squashed instructions issued (Count)
system.cpu.squashedInstsExamined               496610                       # Number of squashed instructions iterated over during squash; mainly for profiling (Count)
system.cpu.squashedOperandsExamined            801309                       # Number of squashed operands that are examined and possibly removed from graph (Count)
system.cpu.squashedNonSpecRemoved                  74                       # Number of squashed non-spec instructions that were removed (Count)
system.cpu.numIssuedDist::samples             2238979                       # Number of insts issued each cycle (Count)
system.cpu.numIssuedDist::mean               2.528535                       # Number of insts issued each cycle (Count)
system.cpu.numIssuedDist::stdev              2.482211                       # Number of insts issued each cycle (Count)
system.cpu.numIssuedDist::underflows                0      0.00%      0.00% # Number of insts issued each cycle (Count)
system.cpu.numIssuedDist::0                    788020     35.20%     35.20% # Number of insts issued each cycle (Count)
system.cpu.numIssuedDist::1                    206082      9.20%     44.40% # Number of insts issued each cycle (Count)
system.cpu.numIssuedDist::2                    236551     10.57%     54.96% # Number of insts issued each cycle (Count)
system.cpu.numIssuedDist::3                    240373     10.74%     65.70% # Number of insts issued each cycle (Count)
system.cpu.numIssuedDist::4                    192487      8.60%     74.30% # Number of insts issued each cycle (Count)
system.cpu.numIssuedDist::5                    192090      8.58%     82.88% # Number of insts issued each cycle (Count)
system.cpu.numIssuedDist::6                    210954      9.42%     92.30% # Number of insts issued each cycle (Count)
system.cpu.numIssuedDist::7                    114465      5.11%     97.41% # Number of insts issued each cycle (Count)
system.cpu.numIssuedDist::8                     57957      2.59%    100.00% # Number of insts issued each cycle (Count)
system.cpu.numIssuedDist::overflows                 0      0.00%    100.00% # Number of insts issued each cycle (Count)
system.cpu.numIssuedDist::min_value                 0                       # Number of insts issued each cycle (Count)
system.cpu.numIssuedDist::max_value                 8                       # Number of insts issued each cycle (Count)
system.cpu.numIssuedDist::total               2238979                       # Number of insts issued each cycle (Count)
system.cpu.statFuBusy::No_OpClass                   0      0.00%      0.00% # attempts to use FU when none available (Count)
system.cpu.statFuBusy::IntAlu                   73337     65.49%     65.49% # attempts to use FU when none available (Count)
system.cpu.statFuBusy::IntMult                      0      0.00%     65.49% # attempts to use FU when none available (Count)
system.cpu.statFuBusy::IntDiv                       0      0.00%     65.49% # attempts to use FU when none available (Count)
system.cpu.statFuBusy::FloatAdd                     0      0.00%     65.49% # attempts to use FU when none available (Count)
system.cpu.statFuBusy::FloatCmp                     0      0.00%     65.49% # attempts to use FU when none available (Count)
system.cpu.statFuBusy::FloatCvt                     0      0.00%     65.49% # attempts to use FU when none available (Count)
system.cpu.statFuBusy::FloatMult                    0      0.00%     65.49% # attempts to use FU when none available (Count)
system.cpu.statFuBusy::FloatMultAcc                 0      0.00%     65.49% # attempts to use FU when none available (Count)
system.cpu.statFuBusy::FloatDiv                     0      0.00%     65.49% # attempts to use FU when none available (Count)
system.cpu.statFuBusy::FloatMisc                    0      0.00%     65.49% # attempts to use FU when none available (Count)
system.cpu.statFuBusy::FloatSqrt                    0      0.00%     65.49% # attempts to use FU when none available (Count)
system.cpu.statFuBusy::SimdAdd                      0      0.00%     65.49% # attempts to use FU when none available (Count)
system.cpu.statFuBusy::SimdAddAcc                   0      0.00%     65.49% # attempts to use FU when none available (Count)
system.cpu.statFuBusy::SimdAlu                   1019      0.91%     66.40% # attempts to use FU when none available (Count)
system.cpu.statFuBusy::SimdCmp                      0      0.00%     66.40% # attempts to use FU when none available (Count)
system.cpu.statFuBusy::SimdCvt                      8      0.01%     66.41% # attempts to use FU when none available (Count)
system.cpu.statFuBusy::SimdMisc                     1      0.00%     66.41% # attempts to use FU when none available (Count)
system.cpu.statFuBusy::SimdMult                     0      0.00%     66.41% # attempts to use FU when none available (Count)
system.cpu.statFuBusy::SimdMultAcc                  0      0.00%     66.41% # attempts to use FU when none available (Count)
system.cpu.statFuBusy::SimdShift                    0      0.00%     66.41% # attempts to use FU when none available (Count)
system.cpu.statFuBusy::SimdShiftAcc                 0      0.00%     66.41% # attempts to use FU when none available (Count)
system.cpu.statFuBusy::SimdDiv                      0      0.00%     66.41% # attempts to use FU when none available (Count)
system.cpu.statFuBusy::SimdSqrt                     0      0.00%     66.41% # attempts to use FU when none available (Count)
system.cpu.statFuBusy::SimdFloatAdd                 0      0.00%     66.41% # attempts to use FU when none available (Count)
system.cpu.statFuBusy::SimdFloatAlu                 0      0.00%     66.41% # attempts to use FU when none available (Count)
system.cpu.statFuBusy::SimdFloatCmp                 0      0.00%     66.41% # attempts to use FU when none available (Count)
system.cpu.statFuBusy::SimdFloatCvt                 0      0.00%     66.41% # attempts to use FU when none available (Count)
system.cpu.statFuBusy::SimdFloatDiv                 0      0.00%     66.41% # attempts to use FU when none available (Count)
system.cpu.statFuBusy::SimdFloatMisc                0      0.00%     66.41% # attempts to use FU when none available (Count)
system.cpu.statFuBusy::SimdFloatMult                0      0.00%     66.41% # attempts to use FU when none available (Count)
system.cpu.statFuBusy::SimdFloatMultAcc             0      0.00%     66.41% # attempts to use FU when none available (Count)
system.cpu.statFuBusy::SimdFloatSqrt                0      0.00%     66.41% # attempts to use FU when none available (Count)
system.cpu.statFuBusy::SimdReduceAdd                0      0.00%     66.41% # attempts to use FU when none available (Count)
system.cpu.statFuBusy::SimdReduceAlu                0      0.00%     66.41% # attempts to use FU when none available (Count)
system.cpu.statFuBusy::SimdReduceCmp                0      0.00%     66.41% # attempts to use FU when none available (Count)
system.cpu.statFuBusy::SimdFloatReduceAdd            0      0.00%     66.41% # attempts to use FU when none available (Count)
system.cpu.statFuBusy::SimdFloatReduceCmp            0      0.00%     66.41% # attempts to use FU when none available (Count)
system.cpu.statFuBusy::SimdAes                      0      0.00%     66.41% # attempts to use FU when none available (Count)
system.cpu.statFuBusy::SimdAesMix                   0      0.00%     66.41% # attempts to use FU when none available (Count)
system.cpu.statFuBusy::SimdSha1Hash                 0      0.00%     66.41% # attempts to use FU when none available (Count)
system.cpu.statFuBusy::SimdSha1Hash2                0      0.00%     66.41% # attempts to use FU when none available (Count)
system.cpu.statFuBusy::SimdSha256Hash               0      0.00%     66.41% # attempts to use FU when none available (Count)
system.cpu.statFuBusy::SimdSha256Hash2              0      0.00%     66.41% # attempts to use FU when none available (Count)
system.cpu.statFuBusy::SimdShaSigma2                0      0.00%     66.41% # attempts to use FU when none available (Count)
system.cpu.statFuBusy::SimdShaSigma3                0      0.00%     66.41% # attempts to use FU when none available (Count)
system.cpu.statFuBusy::SimdPredAlu                  0      0.00%     66.41% # attempts to use FU when none available (Count)
system.cpu.statFuBusy::MemRead                  16152     14.42%     80.83% # attempts to use FU when none available (Count)
system.cpu.statFuBusy::MemWrite                  9259      8.27%     89.10% # attempts to use FU when none available (Count)
system.cpu.statFuBusy::FloatMemRead              1400      1.25%     90.35% # attempts to use FU when none available (Count)
system.cpu.statFuBusy::FloatMemWrite            10806      9.65%    100.00% # attempts to use FU when none available (Count)
system.cpu.statFuBusy::IprAccess                    0      0.00%    100.00% # attempts to use FU when none available (Count)
system.cpu.statFuBusy::InstPrefetch                 0      0.00%    100.00% # attempts to use FU when none available (Count)
system.cpu.statIssuedInstType_0::No_OpClass        75063      1.33%      1.33% # Number of instructions issued per FU type, per thread (Count)
system.cpu.statIssuedInstType_0::IntAlu       4171674     73.69%     75.01% # Number of instructions issued per FU type, per thread (Count)
system.cpu.statIssuedInstType_0::IntMult         4560      0.08%     75.09% # Number of instructions issued per FU type, per thread (Count)
system.cpu.statIssuedInstType_0::IntDiv         19211      0.34%     75.43% # Number of instructions issued per FU type, per thread (Count)
system.cpu.statIssuedInstType_0::FloatAdd        29871      0.53%     75.96% # Number of instructions issued per FU type, per thread (Count)
system.cpu.statIssuedInstType_0::FloatCmp            0      0.00%     75.96% # Number of instructions issued per FU type, per thread (Count)
system.cpu.statIssuedInstType_0::FloatCvt           32      0.00%     75.96% # Number of instructions issued per FU type, per thread (Count)
system.cpu.statIssuedInstType_0::FloatMult            0      0.00%     75.96% # Number of instructions issued per FU type, per thread (Count)
system.cpu.statIssuedInstType_0::FloatMultAcc            0      0.00%     75.96% # Number of instructions issued per FU type, per thread (Count)
system.cpu.statIssuedInstType_0::FloatDiv            0      0.00%     75.96% # Number of instructions issued per FU type, per thread (Count)
system.cpu.statIssuedInstType_0::FloatMisc            0      0.00%     75.96% # Number of instructions issued per FU type, per thread (Count)
system.cpu.statIssuedInstType_0::FloatSqrt            0      0.00%     75.96% # Number of instructions issued per FU type, per thread (Count)
system.cpu.statIssuedInstType_0::SimdAdd          475      0.01%     75.97% # Number of instructions issued per FU type, per thread (Count)
system.cpu.statIssuedInstType_0::SimdAddAcc            0      0.00%     75.97% # Number of instructions issued per FU type, per thread (Count)
system.cpu.statIssuedInstType_0::SimdAlu        21693      0.38%     76.35% # Number of instructions issued per FU type, per thread (Count)
system.cpu.statIssuedInstType_0::SimdCmp            0      0.00%     76.35% # Number of instructions issued per FU type, per thread (Count)
system.cpu.statIssuedInstType_0::SimdCvt        11299      0.20%     76.55% # Number of instructions issued per FU type, per thread (Count)
system.cpu.statIssuedInstType_0::SimdMisc        25207      0.45%     77.00% # Number of instructions issued per FU type, per thread (Count)
system.cpu.statIssuedInstType_0::SimdMult            0      0.00%     77.00% # Number of instructions issued per FU type, per thread (Count)
system.cpu.statIssuedInstType_0::SimdMultAcc            0      0.00%     77.00% # Number of instructions issued per FU type, per thread (Count)
system.cpu.statIssuedInstType_0::SimdShift          527      0.01%     77.01% # Number of instructions issued per FU type, per thread (Count)
system.cpu.statIssuedInstType_0::SimdShiftAcc            0      0.00%     77.01% # Number of instructions issued per FU type, per thread (Count)
system.cpu.statIssuedInstType_0::SimdDiv            0      0.00%     77.01% # Number of instructions issued per FU type, per thread (Count)
system.cpu.statIssuedInstType_0::SimdSqrt            0      0.00%     77.01% # Number of instructions issued per FU type, per thread (Count)
system.cpu.statIssuedInstType_0::SimdFloatAdd            0      0.00%     77.01% # Number of instructions issued per FU type, per thread (Count)
system.cpu.statIssuedInstType_0::SimdFloatAlu            0      0.00%     77.01% # Number of instructions issued per FU type, per thread (Count)
system.cpu.statIssuedInstType_0::SimdFloatCmp            0      0.00%     77.01% # Number of instructions issued per FU type, per thread (Count)
system.cpu.statIssuedInstType_0::SimdFloatCvt        12411      0.22%     77.23% # Number of instructions issued per FU type, per thread (Count)
system.cpu.statIssuedInstType_0::SimdFloatDiv            0      0.00%     77.23% # Number of instructions issued per FU type, per thread (Count)
system.cpu.statIssuedInstType_0::SimdFloatMisc            0      0.00%     77.23% # Number of instructions issued per FU type, per thread (Count)
system.cpu.statIssuedInstType_0::SimdFloatMult            0      0.00%     77.23% # Number of instructions issued per FU type, per thread (Count)
system.cpu.statIssuedInstType_0::SimdFloatMultAcc            0      0.00%     77.23% # Number of instructions issued per FU type, per thread (Count)
system.cpu.statIssuedInstType_0::SimdFloatSqrt            0      0.00%     77.23% # Number of instructions issued per FU type, per thread (Count)
system.cpu.statIssuedInstType_0::SimdReduceAdd            0      0.00%     77.23% # Number of instructions issued per FU type, per thread (Count)
system.cpu.statIssuedInstType_0::SimdReduceAlu            0      0.00%     77.23% # Number of instructions issued per FU type, per thread (Count)
system.cpu.statIssuedInstType_0::SimdReduceCmp            0      0.00%     77.23% # Number of instructions issued per FU type, per thread (Count)
system.cpu.statIssuedInstType_0::SimdFloatReduceAdd            0      0.00%     77.23% # Number of instructions issued per FU type, per thread (Count)
system.cpu.statIssuedInstType_0::SimdFloatReduceCmp            0      0.00%     77.23% # Number of instructions issued per FU type, per thread (Count)
system.cpu.statIssuedInstType_0::SimdAes            0      0.00%     77.23% # Number of instructions issued per FU type, per thread (Count)
system.cpu.statIssuedInstType_0::SimdAesMix            0      0.00%     77.23% # Number of instructions issued per FU type, per thread (Count)
system.cpu.statIssuedInstType_0::SimdSha1Hash            0      0.00%     77.23% # Number of instructions issued per FU type, per thread (Count)
system.cpu.statIssuedInstType_0::SimdSha1Hash2            0      0.00%     77.23% # Number of instructions issued per FU type, per thread (Count)
system.cpu.statIssuedInstType_0::SimdSha256Hash            0      0.00%     77.23% # Number of instructions issued per FU type, per thread (Count)
system.cpu.statIssuedInstType_0::SimdSha256Hash2            0      0.00%     77.23% # Number of instructions issued per FU type, per thread (Count)
system.cpu.statIssuedInstType_0::SimdShaSigma2            0      0.00%     77.23% # Number of instructions issued per FU type, per thread (Count)
system.cpu.statIssuedInstType_0::SimdShaSigma3            0      0.00%     77.23% # Number of instructions issued per FU type, per thread (Count)
system.cpu.statIssuedInstType_0::SimdPredAlu            0      0.00%     77.23% # Number of instructions issued per FU type, per thread (Count)
system.cpu.statIssuedInstType_0::MemRead       742415     13.11%     90.34% # Number of instructions issued per FU type, per thread (Count)
system.cpu.statIssuedInstType_0::MemWrite       463402      8.19%     98.53% # Number of instructions issued per FU type, per thread (Count)
system.cpu.statIssuedInstType_0::FloatMemRead        44790      0.79%     99.32% # Number of instructions issued per FU type, per thread (Count)
system.cpu.statIssuedInstType_0::FloatMemWrite        38706      0.68%    100.00% # Number of instructions issued per FU type, per thread (Count)
system.cpu.statIssuedInstType_0::IprAccess            0      0.00%    100.00% # Number of instructions issued per FU type, per thread (Count)
system.cpu.statIssuedInstType_0::InstPrefetch            0      0.00%    100.00% # Number of instructions issued per FU type, per thread (Count)
system.cpu.statIssuedInstType_0::total        5661336                       # Number of instructions issued per FU type, per thread (Count)
system.cpu.issueRate                         2.390711                       # Inst issue rate ((Count/Cycle))
system.cpu.fuBusy                              111982                       # FU busy when requested (Count)
system.cpu.fuBusyRate                        0.019780                       # FU busy rate (busy events/executed inst) ((Count/Count))
system.cpu.intInstQueueReads                 13276327                       # Number of integer instruction queue reads (Count)
system.cpu.intInstQueueWrites                 6056990                       # Number of integer instruction queue writes (Count)
system.cpu.intInstQueueWakeupAccesses         5421218                       # Number of integer instruction queue wakeup accesses (Count)
system.cpu.fpInstQueueReads                    400297                       # Number of floating instruction queue reads (Count)
system.cpu.fpInstQueueWrites                   233598                       # Number of floating instruction queue writes (Count)
system.cpu.fpInstQueueWakeupAccesses           183406                       # Number of floating instruction queue wakeup accesses (Count)
system.cpu.vecInstQueueReads                        0                       # Number of vector instruction queue reads (Count)
system.cpu.vecInstQueueWrites                       0                       # Number of vector instruction queue writes (Count)
system.cpu.vecInstQueueWakeupAccesses               0                       # Number of vector instruction queue wakeup accesses (Count)
system.cpu.intAluAccesses                     5491590                       # Number of integer alu accesses (Count)
system.cpu.fpAluAccesses                       206665                       # Number of floating point alu accesses (Count)
system.cpu.vecAluAccesses                           0                       # Number of vector alu accesses (Count)
system.cpu.numInsts                           5625110                       # Number of executed instructions (Count)
system.cpu.numLoadInsts                        779431                       # Number of load instructions executed (Count)
system.cpu.numSquashedInsts                     36226                       # Number of squashed instructions skipped in execute (Count)
system.cpu.numSwp                                   0                       # Number of swp insts executed (Count)
system.cpu.numNop                                   0                       # Number of nop insts executed (Count)
system.cpu.numRefs                            1277397                       # Number of memory reference insts executed (Count)
system.cpu.numBranches                         573138                       # Number of branches executed (Count)
system.cpu.numStoreInsts                       497966                       # Number of stores executed (Count)
system.cpu.numRate                           2.375414                       # Inst execution rate ((Count/Cycle))
system.cpu.timesIdled                           11375                       # Number of times that the entire CPU went into an idle state and unscheduled itself (Count)
system.cpu.idleCycles                          129076                       # Total number of cycles that the CPU has spent unscheduled due to idling (Cycle)
system.cpu.committedInsts                     2849860                       # Number of Instructions Simulated (Count)
system.cpu.committedOps                       5296197                       # Number of Ops (including micro ops) Simulated (Count)
system.cpu.cpi                               0.830937                       # CPI: Cycles Per Instruction ((Cycle/Count))
system.cpu.totalCpi                          0.830937                       # CPI: Total CPI of All Threads ((Cycle/Count))
system.cpu.ipc                               1.203460                       # IPC: Instructions Per Cycle ((Count/Cycle))
system.cpu.totalIpc                          1.203460                       # IPC: Total IPC of All Threads ((Count/Cycle))
system.cpu.intRegfileReads                    7179819                       # Number of integer regfile reads (Count)
system.cpu.intRegfileWrites                   4034726                       # Number of integer regfile writes (Count)
system.cpu.fpRegfileReads                      200908                       # Number of floating regfile reads (Count)
system.cpu.fpRegfileWrites                     124906                       # Number of floating regfile writes (Count)
system.cpu.ccRegfileReads                     2872174                       # number of cc regfile reads (Count)
system.cpu.ccRegfileWrites                    1783121                       # number of cc regfile writes (Count)
system.cpu.miscRegfileReads                   2412526                       # number of misc regfile reads (Count)
system.cpu.miscRegfileWrites                       18                       # number of misc regfile writes (Count)
system.cpu.MemDepUnit__0.insertedLoads         795195                       # Number of loads inserted to the mem dependence unit. (Count)
system.cpu.MemDepUnit__0.insertedStores        519305                       # Number of stores inserted to the mem dependence unit. (Count)
system.cpu.MemDepUnit__0.conflictingLoads        98327                       # Number of conflicting loads. (Count)
system.cpu.MemDepUnit__0.conflictingStores        41319                       # Number of conflicting stores. (Count)
system.cpu.MemDepUnit__1.insertedLoads              0                       # Number of loads inserted to the mem dependence unit. (Count)
system.cpu.MemDepUnit__1.insertedStores             0                       # Number of stores inserted to the mem dependence unit. (Count)
system.cpu.MemDepUnit__1.conflictingLoads            0                       # Number of conflicting loads. (Count)
system.cpu.MemDepUnit__1.conflictingStores            0                       # Number of conflicting stores. (Count)
system.cpu.MemDepUnit__2.insertedLoads              0                       # Number of loads inserted to the mem dependence unit. (Count)
system.cpu.MemDepUnit__2.insertedStores             0                       # Number of stores inserted to the mem dependence unit. (Count)
system.cpu.MemDepUnit__2.conflictingLoads            0                       # Number of conflicting loads. (Count)
system.cpu.MemDepUnit__2.conflictingStores            0                       # Number of conflicting stores. (Count)
system.cpu.MemDepUnit__3.insertedLoads              0                       # Number of loads inserted to the mem dependence unit. (Count)
system.cpu.MemDepUnit__3.insertedStores             0                       # Number of stores inserted to the mem dependence unit. (Count)
system.cpu.MemDepUnit__3.conflictingLoads            0                       # Number of conflicting loads. (Count)
system.cpu.MemDepUnit__3.conflictingStores            0                       # Number of conflicting stores. (Count)
system.cpu.branchPred.lookups                  635976                       # Number of BP lookups (Count)
system.cpu.branchPred.condPredicted            456698                       # Number of conditional branches predicted (Count)
system.cpu.branchPred.condIncorrect             12388                       # Number of conditional branches incorrect (Count)
system.cpu.branchPred.BTBLookups               302924                       # Number of BTB lookups (Count)
system.cpu.branchPred.BTBUpdates                 9837                       # Number of BTB updates (Count)
system.cpu.branchPred.BTBHits                  301799                       # Number of BTB hits (Count)
system.cpu.branchPred.BTBHitRatio            0.996286                       # BTB Hit Ratio (Ratio)
system.cpu.branchPred.RASUsed                   48008                       # Number of times the RAS was used to get a target. (Count)
system.cpu.branchPred.RASIncorrect                  1                       # Number of incorrect RAS predictions. (Count)
system.cpu.branchPred.indirectLookups           31484                       # Number of indirect predictor lookups. (Count)
system.cpu.branchPred.indirectHits              16228                       # Number of indirect target hits. (Count)
system.cpu.branchPred.indirectMisses            15256                       # Number of indirect misses. (Count)
system.cpu.branchPred.indirectMispredicted          338                       # Number of mispredicted indirect branches. (Count)
system.cpu.commit.commitSquashedInsts          495122                       # The number of squashed insts skipped by commit (Count)
system.cpu.commit.commitNonSpecStalls            6072                       # The number of times commit has been forced to stall to communicate backwards (Count)
system.cpu.commit.branchMispredicts             11414                       # The number of times a branch was mispredicted (Count)
system.cpu.commit.numCommittedDist::samples      2168544                       # Number of insts commited each cycle (Count)
system.cpu.commit.numCommittedDist::mean     2.442282                       # Number of insts commited each cycle (Count)
system.cpu.commit.numCommittedDist::stdev     2.896938                       # Number of insts commited each cycle (Count)
system.cpu.commit.numCommittedDist::underflows            0      0.00%      0.00% # Number of insts commited each cycle (Count)
system.cpu.commit.numCommittedDist::0          875903     40.39%     40.39% # Number of insts commited each cycle (Count)
system.cpu.commit.numCommittedDist::1          254890     11.75%     52.15% # Number of insts commited each cycle (Count)
system.cpu.commit.numCommittedDist::2          221321     10.21%     62.35% # Number of insts commited each cycle (Count)
system.cpu.commit.numCommittedDist::3          282549     13.03%     75.38% # Number of insts commited each cycle (Count)
system.cpu.commit.numCommittedDist::4           53718      2.48%     77.86% # Number of insts commited each cycle (Count)
system.cpu.commit.numCommittedDist::5           60812      2.80%     80.66% # Number of insts commited each cycle (Count)
system.cpu.commit.numCommittedDist::6           36616      1.69%     82.35% # Number of insts commited each cycle (Count)
system.cpu.commit.numCommittedDist::7           49490      2.28%     84.63% # Number of insts commited each cycle (Count)
system.cpu.commit.numCommittedDist::8          333245     15.37%    100.00% # Number of insts commited each cycle (Count)
system.cpu.commit.numCommittedDist::overflows            0      0.00%    100.00% # Number of insts commited each cycle (Count)
system.cpu.commit.numCommittedDist::min_value            0                       # Number of insts commited each cycle (Count)
system.cpu.commit.numCommittedDist::max_value            8                       # Number of insts commited each cycle (Count)
system.cpu.commit.numCommittedDist::total      2168544                       # Number of insts commited each cycle (Count)
system.cpu.commit.instsCommitted              2849860                       # Number of instructions committed (Count)
system.cpu.commit.opsCommitted                5296197                       # Number of ops (including micro ops) committed (Count)
system.cpu.commit.memRefs                     1192055                       # Number of memory references committed (Count)
system.cpu.commit.loads                        727037                       # Number of loads committed (Count)
system.cpu.commit.amos                              0                       # Number of atomic instructions committed (Count)
system.cpu.commit.membars                        4036                       # Number of memory barriers committed (Count)
system.cpu.commit.branches                     550997                       # Number of branches committed (Count)
system.cpu.commit.vectorInstructions                0                       # Number of committed Vector instructions. (Count)
system.cpu.commit.floating                     157100                       # Number of committed floating point instructions. (Count)
system.cpu.commit.integer                     5135108                       # Number of committed integer instructions. (Count)
system.cpu.commit.functionCalls                 45597                       # Number of function calls committed. (Count)
system.cpu.commit.committedInstType_0::No_OpClass        58512      1.10%      1.10% # Class of committed instruction (Count)
system.cpu.commit.committedInstType_0::IntAlu      3930290     74.21%     75.31% # Class of committed instruction (Count)
system.cpu.commit.committedInstType_0::IntMult         3677      0.07%     75.38% # Class of committed instruction (Count)
system.cpu.commit.committedInstType_0::IntDiv        19071      0.36%     75.74% # Class of committed instruction (Count)
system.cpu.commit.committedInstType_0::FloatAdd        23493      0.44%     76.19% # Class of committed instruction (Count)
system.cpu.commit.committedInstType_0::FloatCmp            0      0.00%     76.19% # Class of committed instruction (Count)
system.cpu.commit.committedInstType_0::FloatCvt           32      0.00%     76.19% # Class of committed instruction (Count)
system.cpu.commit.committedInstType_0::FloatMult            0      0.00%     76.19% # Class of committed instruction (Count)
system.cpu.commit.committedInstType_0::FloatMultAcc            0      0.00%     76.19% # Class of committed instruction (Count)
system.cpu.commit.committedInstType_0::FloatDiv            0      0.00%     76.19% # Class of committed instruction (Count)
system.cpu.commit.committedInstType_0::FloatMisc            0      0.00%     76.19% # Class of committed instruction (Count)
system.cpu.commit.committedInstType_0::FloatSqrt            0      0.00%     76.19% # Class of committed instruction (Count)
system.cpu.commit.committedInstType_0::SimdAdd          340      0.01%     76.19% # Class of committed instruction (Count)
system.cpu.commit.committedInstType_0::SimdAddAcc            0      0.00%     76.19% # Class of committed instruction (Count)
system.cpu.commit.committedInstType_0::SimdAlu        20785      0.39%     76.59% # Class of committed instruction (Count)
system.cpu.commit.committedInstType_0::SimdCmp            0      0.00%     76.59% # Class of committed instruction (Count)
system.cpu.commit.committedInstType_0::SimdCvt        10796      0.20%     76.79% # Class of committed instruction (Count)
system.cpu.commit.committedInstType_0::SimdMisc        24936      0.47%     77.26% # Class of committed instruction (Count)
system.cpu.commit.committedInstType_0::SimdMult            0      0.00%     77.26% # Class of committed instruction (Count)
system.cpu.commit.committedInstType_0::SimdMultAcc            0      0.00%     77.26% # Class of committed instruction (Count)
system.cpu.commit.committedInstType_0::SimdShift          178      0.00%     77.27% # Class of committed instruction (Count)
system.cpu.commit.committedInstType_0::SimdShiftAcc            0      0.00%     77.27% # Class of committed instruction (Count)
system.cpu.commit.committedInstType_0::SimdDiv            0      0.00%     77.27% # Class of committed instruction (Count)
system.cpu.commit.committedInstType_0::SimdSqrt            0      0.00%     77.27% # Class of committed instruction (Count)
system.cpu.commit.committedInstType_0::SimdFloatAdd            0      0.00%     77.27% # Class of committed instruction (Count)
system.cpu.commit.committedInstType_0::SimdFloatAlu            0      0.00%     77.27% # Class of committed instruction (Count)
system.cpu.commit.committedInstType_0::SimdFloatCmp            0      0.00%     77.27% # Class of committed instruction (Count)
system.cpu.commit.committedInstType_0::SimdFloatCvt        12032      0.23%     77.49% # Class of committed instruction (Count)
system.cpu.commit.committedInstType_0::SimdFloatDiv            0      0.00%     77.49% # Class of committed instruction (Count)
system.cpu.commit.committedInstType_0::SimdFloatMisc            0      0.00%     77.49% # Class of committed instruction (Count)
system.cpu.commit.committedInstType_0::SimdFloatMult            0      0.00%     77.49% # Class of committed instruction (Count)
system.cpu.commit.committedInstType_0::SimdFloatMultAcc            0      0.00%     77.49% # Class of committed instruction (Count)
system.cpu.commit.committedInstType_0::SimdFloatSqrt            0      0.00%     77.49% # Class of committed instruction (Count)
system.cpu.commit.committedInstType_0::SimdReduceAdd            0      0.00%     77.49% # Class of committed instruction (Count)
system.cpu.commit.committedInstType_0::SimdReduceAlu            0      0.00%     77.49% # Class of committed instruction (Count)
system.cpu.commit.committedInstType_0::SimdReduceCmp            0      0.00%     77.49% # Class of committed instruction (Count)
system.cpu.commit.committedInstType_0::SimdFloatReduceAdd            0      0.00%     77.49% # Class of committed instruction (Count)
system.cpu.commit.committedInstType_0::SimdFloatReduceCmp            0      0.00%     77.49% # Class of committed instruction (Count)
system.cpu.commit.committedInstType_0::SimdAes            0      0.00%     77.49% # Class of committed instruction (Count)
system.cpu.commit.committedInstType_0::SimdAesMix            0      0.00%     77.49% # Class of committed instruction (Count)
system.cpu.commit.committedInstType_0::SimdSha1Hash            0      0.00%     77.49% # Class of committed instruction (Count)
system.cpu.commit.committedInstType_0::SimdSha1Hash2            0      0.00%     77.49% # Class of committed instruction (Count)
system.cpu.commit.committedInstType_0::SimdSha256Hash            0      0.00%     77.49% # Class of committed instruction (Count)
system.cpu.commit.committedInstType_0::SimdSha256Hash2            0      0.00%     77.49% # Class of committed instruction (Count)
system.cpu.commit.committedInstType_0::SimdShaSigma2            0      0.00%     77.49% # Class of committed instruction (Count)
system.cpu.commit.committedInstType_0::SimdShaSigma3            0      0.00%     77.49% # Class of committed instruction (Count)
system.cpu.commit.committedInstType_0::SimdPredAlu            0      0.00%     77.49% # Class of committed instruction (Count)
system.cpu.commit.committedInstType_0::MemRead       694020     13.10%     90.60% # Class of committed instruction (Count)
system.cpu.commit.committedInstType_0::MemWrite       441864      8.34%     98.94% # Class of committed instruction (Count)
system.cpu.commit.committedInstType_0::FloatMemRead        33017      0.62%     99.56% # Class of committed instruction (Count)
system.cpu.commit.committedInstType_0::FloatMemWrite        23154      0.44%    100.00% # Class of committed instruction (Count)
system.cpu.commit.committedInstType_0::IprAccess            0      0.00%    100.00% # Class of committed instruction (Count)
system.cpu.commit.committedInstType_0::InstPrefetch            0      0.00%    100.00% # Class of committed instruction (Count)
system.cpu.commit.committedInstType_0::total      5296197                       # Class of committed instruction (Count)
system.cpu.commit.commitEligibleSamples        333245                       # number cycles where commit BW limit reached (Cycle)
system.cpu.dcache.demandHits::cpu.data        1087708                       # number of demand (read+write) hits (Count)
system.cpu.dcache.demandHits::total           1087708                       # number of demand (read+write) hits (Count)
system.cpu.dcache.overallHits::cpu.data       1087708                       # number of overall hits (Count)
system.cpu.dcache.overallHits::total          1087708                       # number of overall hits (Count)
system.cpu.dcache.demandMisses::cpu.data         7435                       # number of demand (read+write) misses (Count)
system.cpu.dcache.demandMisses::total            7435                       # number of demand (read+write) misses (Count)
system.cpu.dcache.overallMisses::cpu.data         7435                       # number of overall misses (Count)
system.cpu.dcache.overallMisses::total           7435                       # number of overall misses (Count)
system.cpu.dcache.demandMissLatency::cpu.data    452628500                       # number of demand (read+write) miss ticks (Tick)
system.cpu.dcache.demandMissLatency::total    452628500                       # number of demand (read+write) miss ticks (Tick)
system.cpu.dcache.overallMissLatency::cpu.data    452628500                       # number of overall miss ticks (Tick)
system.cpu.dcache.overallMissLatency::total    452628500                       # number of overall miss ticks (Tick)
system.cpu.dcache.demandAccesses::cpu.data      1095143                       # number of demand (read+write) accesses (Count)
system.cpu.dcache.demandAccesses::total       1095143                       # number of demand (read+write) accesses (Count)
system.cpu.dcache.overallAccesses::cpu.data      1095143                       # number of overall (read+write) accesses (Count)
system.cpu.dcache.overallAccesses::total      1095143                       # number of overall (read+write) accesses (Count)
system.cpu.dcache.demandMissRate::cpu.data     0.006789                       # miss rate for demand accesses (Ratio)
system.cpu.dcache.demandMissRate::total      0.006789                       # miss rate for demand accesses (Ratio)
system.cpu.dcache.overallMissRate::cpu.data     0.006789                       # miss rate for overall accesses (Ratio)
system.cpu.dcache.overallMissRate::total     0.006789                       # miss rate for overall accesses (Ratio)
system.cpu.dcache.demandAvgMissLatency::cpu.data 60878.076664                       # average overall miss latency in ticks ((Tick/Count))
system.cpu.dcache.demandAvgMissLatency::total 60878.076664                       # average overall miss latency in ticks ((Tick/Count))
system.cpu.dcache.overallAvgMissLatency::cpu.data 60878.076664                       # average overall miss latency ((Tick/Count))
system.cpu.dcache.overallAvgMissLatency::total 60878.076664                       # average overall miss latency ((Tick/Count))
system.cpu.dcache.blockedCycles::no_mshrs        13904                       # number of cycles access was blocked (Cycle)
system.cpu.dcache.blockedCycles::no_targets            0                       # number of cycles access was blocked (Cycle)
system.cpu.dcache.blockedCauses::no_mshrs          285                       # number of times access was blocked (Count)
system.cpu.dcache.blockedCauses::no_targets            0                       # number of times access was blocked (Count)
system.cpu.dcache.avgBlocked::no_mshrs      48.785965                       # average number of cycles each access was blocked ((Cycle/Count))
system.cpu.dcache.avgBlocked::no_targets          nan                       # average number of cycles each access was blocked ((Cycle/Count))
system.cpu.dcache.writebacks::writebacks          446                       # number of writebacks (Count)
system.cpu.dcache.writebacks::total               446                       # number of writebacks (Count)
system.cpu.dcache.demandMshrHits::cpu.data         5155                       # number of demand (read+write) MSHR hits (Count)
system.cpu.dcache.demandMshrHits::total          5155                       # number of demand (read+write) MSHR hits (Count)
system.cpu.dcache.overallMshrHits::cpu.data         5155                       # number of overall MSHR hits (Count)
system.cpu.dcache.overallMshrHits::total         5155                       # number of overall MSHR hits (Count)
system.cpu.dcache.demandMshrMisses::cpu.data         2280                       # number of demand (read+write) MSHR misses (Count)
system.cpu.dcache.demandMshrMisses::total         2280                       # number of demand (read+write) MSHR misses (Count)
system.cpu.dcache.overallMshrMisses::cpu.data         2280                       # number of overall MSHR misses (Count)
system.cpu.dcache.overallMshrMisses::total         2280                       # number of overall MSHR misses (Count)
system.cpu.dcache.demandMshrMissLatency::cpu.data    160306500                       # number of demand (read+write) MSHR miss ticks (Tick)
system.cpu.dcache.demandMshrMissLatency::total    160306500                       # number of demand (read+write) MSHR miss ticks (Tick)
system.cpu.dcache.overallMshrMissLatency::cpu.data    160306500                       # number of overall MSHR miss ticks (Tick)
system.cpu.dcache.overallMshrMissLatency::total    160306500                       # number of overall MSHR miss ticks (Tick)
system.cpu.dcache.demandMshrMissRate::cpu.data     0.002082                       # mshr miss ratio for demand accesses (Ratio)
system.cpu.dcache.demandMshrMissRate::total     0.002082                       # mshr miss ratio for demand accesses (Ratio)
system.cpu.dcache.overallMshrMissRate::cpu.data     0.002082                       # mshr miss ratio for overall accesses (Ratio)
system.cpu.dcache.overallMshrMissRate::total     0.002082                       # mshr miss ratio for overall accesses (Ratio)
system.cpu.dcache.demandAvgMshrMissLatency::cpu.data 70309.868421                       # average overall mshr miss latency ((Tick/Count))
system.cpu.dcache.demandAvgMshrMissLatency::total 70309.868421                       # average overall mshr miss latency ((Tick/Count))
system.cpu.dcache.overallAvgMshrMissLatency::cpu.data 70309.868421                       # average overall mshr miss latency ((Tick/Count))
system.cpu.dcache.overallAvgMshrMissLatency::total 70309.868421                       # average overall mshr miss latency ((Tick/Count))
system.cpu.dcache.replacements                   1259                       # number of replacements (Count)
system.cpu.dcache.LockedRMWReadReq.hits::cpu.data         2016                       # number of LockedRMWReadReq hits (Count)
system.cpu.dcache.LockedRMWReadReq.hits::total         2016                       # number of LockedRMWReadReq hits (Count)
system.cpu.dcache.LockedRMWReadReq.misses::cpu.data            2                       # number of LockedRMWReadReq misses (Count)
system.cpu.dcache.LockedRMWReadReq.misses::total            2                       # number of LockedRMWReadReq misses (Count)
system.cpu.dcache.LockedRMWReadReq.missLatency::cpu.data       107500                       # number of LockedRMWReadReq miss ticks (Tick)
system.cpu.dcache.LockedRMWReadReq.missLatency::total       107500                       # number of LockedRMWReadReq miss ticks (Tick)
system.cpu.dcache.LockedRMWReadReq.accesses::cpu.data         2018                       # number of LockedRMWReadReq accesses(hits+misses) (Count)
system.cpu.dcache.LockedRMWReadReq.accesses::total         2018                       # number of LockedRMWReadReq accesses(hits+misses) (Count)
system.cpu.dcache.LockedRMWReadReq.missRate::cpu.data     0.000991                       # miss rate for LockedRMWReadReq accesses (Ratio)
system.cpu.dcache.LockedRMWReadReq.missRate::total     0.000991                       # miss rate for LockedRMWReadReq accesses (Ratio)
system.cpu.dcache.LockedRMWReadReq.avgMissLatency::cpu.data        53750                       # average LockedRMWReadReq miss latency ((Tick/Count))
system.cpu.dcache.LockedRMWReadReq.avgMissLatency::total        53750                       # average LockedRMWReadReq miss latency ((Tick/Count))
system.cpu.dcache.LockedRMWReadReq.mshrMisses::cpu.data            2                       # number of LockedRMWReadReq MSHR misses (Count)
system.cpu.dcache.LockedRMWReadReq.mshrMisses::total            2                       # number of LockedRMWReadReq MSHR misses (Count)
system.cpu.dcache.LockedRMWReadReq.mshrMissLatency::cpu.data      7783000                       # number of LockedRMWReadReq MSHR miss ticks (Tick)
system.cpu.dcache.LockedRMWReadReq.mshrMissLatency::total      7783000                       # number of LockedRMWReadReq MSHR miss ticks (Tick)
system.cpu.dcache.LockedRMWReadReq.mshrMissRate::cpu.data     0.000991                       # mshr miss rate for LockedRMWReadReq accesses (Ratio)
system.cpu.dcache.LockedRMWReadReq.mshrMissRate::total     0.000991                       # mshr miss rate for LockedRMWReadReq accesses (Ratio)
system.cpu.dcache.LockedRMWReadReq.avgMshrMissLatency::cpu.data      3891500                       # average LockedRMWReadReq mshr miss latency ((Tick/Count))
system.cpu.dcache.LockedRMWReadReq.avgMshrMissLatency::total      3891500                       # average LockedRMWReadReq mshr miss latency ((Tick/Count))
system.cpu.dcache.LockedRMWWriteReq.hits::cpu.data         2018                       # number of LockedRMWWriteReq hits (Count)
system.cpu.dcache.LockedRMWWriteReq.hits::total         2018                       # number of LockedRMWWriteReq hits (Count)
system.cpu.dcache.LockedRMWWriteReq.accesses::cpu.data         2018                       # number of LockedRMWWriteReq accesses(hits+misses) (Count)
system.cpu.dcache.LockedRMWWriteReq.accesses::total         2018                       # number of LockedRMWWriteReq accesses(hits+misses) (Count)
system.cpu.dcache.ReadReq.hits::cpu.data       625552                       # number of ReadReq hits (Count)
system.cpu.dcache.ReadReq.hits::total          625552                       # number of ReadReq hits (Count)
system.cpu.dcache.ReadReq.misses::cpu.data         6590                       # number of ReadReq misses (Count)
system.cpu.dcache.ReadReq.misses::total          6590                       # number of ReadReq misses (Count)
system.cpu.dcache.ReadReq.missLatency::cpu.data    391476000                       # number of ReadReq miss ticks (Tick)
system.cpu.dcache.ReadReq.missLatency::total    391476000                       # number of ReadReq miss ticks (Tick)
system.cpu.dcache.ReadReq.accesses::cpu.data       632142                       # number of ReadReq accesses(hits+misses) (Count)
system.cpu.dcache.ReadReq.accesses::total       632142                       # number of ReadReq accesses(hits+misses) (Count)
system.cpu.dcache.ReadReq.missRate::cpu.data     0.010425                       # miss rate for ReadReq accesses (Ratio)
system.cpu.dcache.ReadReq.missRate::total     0.010425                       # miss rate for ReadReq accesses (Ratio)
system.cpu.dcache.ReadReq.avgMissLatency::cpu.data 59404.552352                       # average ReadReq miss latency ((Tick/Count))
system.cpu.dcache.ReadReq.avgMissLatency::total 59404.552352                       # average ReadReq miss latency ((Tick/Count))
system.cpu.dcache.ReadReq.mshrHits::cpu.data         5150                       # number of ReadReq MSHR hits (Count)
system.cpu.dcache.ReadReq.mshrHits::total         5150                       # number of ReadReq MSHR hits (Count)
system.cpu.dcache.ReadReq.mshrMisses::cpu.data         1440                       # number of ReadReq MSHR misses (Count)
system.cpu.dcache.ReadReq.mshrMisses::total         1440                       # number of ReadReq MSHR misses (Count)
system.cpu.dcache.ReadReq.mshrMissLatency::cpu.data    100396000                       # number of ReadReq MSHR miss ticks (Tick)
system.cpu.dcache.ReadReq.mshrMissLatency::total    100396000                       # number of ReadReq MSHR miss ticks (Tick)
system.cpu.dcache.ReadReq.mshrMissRate::cpu.data     0.002278                       # mshr miss rate for ReadReq accesses (Ratio)
system.cpu.dcache.ReadReq.mshrMissRate::total     0.002278                       # mshr miss rate for ReadReq accesses (Ratio)
system.cpu.dcache.ReadReq.avgMshrMissLatency::cpu.data 69719.444444                       # average ReadReq mshr miss latency ((Tick/Count))
system.cpu.dcache.ReadReq.avgMshrMissLatency::total 69719.444444                       # average ReadReq mshr miss latency ((Tick/Count))
system.cpu.dcache.WriteReq.hits::cpu.data       462156                       # number of WriteReq hits (Count)
system.cpu.dcache.WriteReq.hits::total         462156                       # number of WriteReq hits (Count)
system.cpu.dcache.WriteReq.misses::cpu.data          845                       # number of WriteReq misses (Count)
system.cpu.dcache.WriteReq.misses::total          845                       # number of WriteReq misses (Count)
system.cpu.dcache.WriteReq.missLatency::cpu.data     61152500                       # number of WriteReq miss ticks (Tick)
system.cpu.dcache.WriteReq.missLatency::total     61152500                       # number of WriteReq miss ticks (Tick)
system.cpu.dcache.WriteReq.accesses::cpu.data       463001                       # number of WriteReq accesses(hits+misses) (Count)
system.cpu.dcache.WriteReq.accesses::total       463001                       # number of WriteReq accesses(hits+misses) (Count)
system.cpu.dcache.WriteReq.missRate::cpu.data     0.001825                       # miss rate for WriteReq accesses (Ratio)
system.cpu.dcache.WriteReq.missRate::total     0.001825                       # miss rate for WriteReq accesses (Ratio)
system.cpu.dcache.WriteReq.avgMissLatency::cpu.data 72369.822485                       # average WriteReq miss latency ((Tick/Count))
system.cpu.dcache.WriteReq.avgMissLatency::total 72369.822485                       # average WriteReq miss latency ((Tick/Count))
system.cpu.dcache.WriteReq.mshrHits::cpu.data            5                       # number of WriteReq MSHR hits (Count)
system.cpu.dcache.WriteReq.mshrHits::total            5                       # number of WriteReq MSHR hits (Count)
system.cpu.dcache.WriteReq.mshrMisses::cpu.data          840                       # number of WriteReq MSHR misses (Count)
system.cpu.dcache.WriteReq.mshrMisses::total          840                       # number of WriteReq MSHR misses (Count)
system.cpu.dcache.WriteReq.mshrMissLatency::cpu.data     59910500                       # number of WriteReq MSHR miss ticks (Tick)
system.cpu.dcache.WriteReq.mshrMissLatency::total     59910500                       # number of WriteReq MSHR miss ticks (Tick)
system.cpu.dcache.WriteReq.mshrMissRate::cpu.data     0.001814                       # mshr miss rate for WriteReq accesses (Ratio)
system.cpu.dcache.WriteReq.mshrMissRate::total     0.001814                       # mshr miss rate for WriteReq accesses (Ratio)
system.cpu.dcache.WriteReq.avgMshrMissLatency::cpu.data 71322.023810                       # average WriteReq mshr miss latency ((Tick/Count))
system.cpu.dcache.WriteReq.avgMshrMissLatency::total 71322.023810                       # average WriteReq mshr miss latency ((Tick/Count))
system.cpu.dcache.power_state.pwrStateResidencyTicks::UNDEFINED   1184027000                       # Cumulative time (in ticks) in various power states (Tick)
system.cpu.dcache.tags.tagsInUse           978.543928                       # Average ticks per tags in use ((Tick/Count))
system.cpu.dcache.tags.totalRefs              1094024                       # Total number of references to valid blocks. (Count)
system.cpu.dcache.tags.sampledRefs               2282                       # Sample count of references to valid blocks. (Count)
system.cpu.dcache.tags.avgRefs             479.414549                       # Average number of references to valid blocks. ((Count/Count))
system.cpu.dcache.tags.warmupTick              168000                       # The tick when the warmup percentage was hit. (Tick)
system.cpu.dcache.tags.occupancies::cpu.data   978.543928                       # Average occupied blocks per tick, per requestor ((Count/Tick))
system.cpu.dcache.tags.avgOccs::cpu.data     0.955609                       # Average percentage of cache occupancy ((Ratio/Tick))
system.cpu.dcache.tags.avgOccs::total        0.955609                       # Average percentage of cache occupancy ((Ratio/Tick))
system.cpu.dcache.tags.occupanciesTaskId::1024         1023                       # Occupied blocks per task id (Count)
system.cpu.dcache.tags.ageTaskId_1024::0           19                       # Occupied blocks per task id, per block age (Count)
system.cpu.dcache.tags.ageTaskId_1024::2          230                       # Occupied blocks per task id, per block age (Count)
system.cpu.dcache.tags.ageTaskId_1024::3          774                       # Occupied blocks per task id, per block age (Count)
system.cpu.dcache.tags.ratioOccsTaskId::1024     0.999023                       # Ratio of occupied blocks and all blocks, per task id (Ratio)
system.cpu.dcache.tags.tagAccesses            4398998                       # Number of tag accesses (Count)
system.cpu.dcache.tags.dataAccesses           4398998                       # Number of data accesses (Count)
system.cpu.dcache.tags.power_state.pwrStateResidencyTicks::UNDEFINED   1184027000                       # Cumulative time (in ticks) in various power states (Tick)
system.cpu.decode.idleCycles                   937635                       # Number of cycles decode is idle (Cycle)
system.cpu.decode.blockedCycles                334119                       # Number of cycles decode is blocked (Cycle)
system.cpu.decode.runCycles                    901117                       # Number of cycles decode is running (Cycle)
system.cpu.decode.unblockCycles                 53402                       # Number of cycles decode is unblocking (Cycle)
system.cpu.decode.squashCycles                  12706                       # Number of cycles decode is squashing (Cycle)
system.cpu.decode.branchResolved               299283                       # Number of times decode resolved a branch (Count)
system.cpu.decode.branchMispred                  1280                       # Number of times decode detected a branch misprediction (Count)
system.cpu.decode.decodedInsts                5943711                       # Number of instructions handled by decode (Count)
system.cpu.decode.squashedInsts                  7715                       # Number of squashed instructions handled by decode (Count)
system.cpu.fetch.icacheStallCycles             971360                       # Number of cycles fetch is stalled on an Icache miss (Cycle)
system.cpu.fetch.insts                        3304061                       # Number of instructions fetch has processed (Count)
system.cpu.fetch.branches                      635976                       # Number of branches that fetch encountered (Count)
system.cpu.fetch.predictedBranches             366035                       # Number of branches that fetch has predicted taken (Count)
system.cpu.fetch.cycles                       1250906                       # Number of cycles fetch has run and was not squashing or blocked (Cycle)
system.cpu.fetch.squashCycles                   27924                       # Number of cycles fetch has spent squashing (Cycle)
system.cpu.fetch.miscStallCycles                  321                       # Number of cycles fetch has spent waiting on interrupts, or bad addresses, or out of MSHRs (Cycle)
system.cpu.fetch.pendingTrapStallCycles          2430                       # Number of stall cycles due to pending traps (Cycle)
system.cpu.fetch.cacheLines                    429926                       # Number of cache lines fetched (Count)
system.cpu.fetch.icacheSquashes                  5354                       # Number of outstanding Icache misses that were squashed (Count)
system.cpu.fetch.nisnDist::samples            2238979                       # Number of instructions fetched each cycle (Total) (Count)
system.cpu.fetch.nisnDist::mean              2.716649                       # Number of instructions fetched each cycle (Total) (Count)
system.cpu.fetch.nisnDist::stdev             3.427234                       # Number of instructions fetched each cycle (Total) (Count)
system.cpu.fetch.nisnDist::underflows               0      0.00%      0.00% # Number of instructions fetched each cycle (Total) (Count)
system.cpu.fetch.nisnDist::0                  1228102     54.85%     54.85% # Number of instructions fetched each cycle (Total) (Count)
system.cpu.fetch.nisnDist::1                    81821      3.65%     58.51% # Number of instructions fetched each cycle (Total) (Count)
system.cpu.fetch.nisnDist::2                    73853      3.30%     61.80% # Number of instructions fetched each cycle (Total) (Count)
system.cpu.fetch.nisnDist::3                    52882      2.36%     64.17% # Number of instructions fetched each cycle (Total) (Count)
system.cpu.fetch.nisnDist::4                    69043      3.08%     67.25% # Number of instructions fetched each cycle (Total) (Count)
system.cpu.fetch.nisnDist::5                    86010      3.84%     71.09% # Number of instructions fetched each cycle (Total) (Count)
system.cpu.fetch.nisnDist::6                    69989      3.13%     74.22% # Number of instructions fetched each cycle (Total) (Count)
system.cpu.fetch.nisnDist::7                    50041      2.23%     76.45% # Number of instructions fetched each cycle (Total) (Count)
system.cpu.fetch.nisnDist::8                   527238     23.55%    100.00% # Number of instructions fetched each cycle (Total) (Count)
system.cpu.fetch.nisnDist::overflows                0      0.00%    100.00% # Number of instructions fetched each cycle (Total) (Count)
system.cpu.fetch.nisnDist::min_value                0                       # Number of instructions fetched each cycle (Total) (Count)
system.cpu.fetch.nisnDist::max_value                8                       # Number of instructions fetched each cycle (Total) (Count)
system.cpu.fetch.nisnDist::total              2238979                       # Number of instructions fetched each cycle (Total) (Count)
system.cpu.fetch.branchRate                  0.268565                       # Number of branch fetches per cycle (Ratio)
system.cpu.fetch.rate                        1.395264                       # Number of inst fetches per cycle ((Count/Cycle))
system.cpu.icache.demandHits::cpu.inst         405125                       # number of demand (read+write) hits (Count)
system.cpu.icache.demandHits::total            405125                       # number of demand (read+write) hits (Count)
system.cpu.icache.overallHits::cpu.inst        405125                       # number of overall hits (Count)
system.cpu.icache.overallHits::total           405125                       # number of overall hits (Count)
system.cpu.icache.demandMisses::cpu.inst        24801                       # number of demand (read+write) misses (Count)
system.cpu.icache.demandMisses::total           24801                       # number of demand (read+write) misses (Count)
system.cpu.icache.overallMisses::cpu.inst        24801                       # number of overall misses (Count)
system.cpu.icache.overallMisses::total          24801                       # number of overall misses (Count)
system.cpu.icache.demandMissLatency::cpu.inst    442094500                       # number of demand (read+write) miss ticks (Tick)
system.cpu.icache.demandMissLatency::total    442094500                       # number of demand (read+write) miss ticks (Tick)
system.cpu.icache.overallMissLatency::cpu.inst    442094500                       # number of overall miss ticks (Tick)
system.cpu.icache.overallMissLatency::total    442094500                       # number of overall miss ticks (Tick)
system.cpu.icache.demandAccesses::cpu.inst       429926                       # number of demand (read+write) accesses (Count)
system.cpu.icache.demandAccesses::total        429926                       # number of demand (read+write) accesses (Count)
system.cpu.icache.overallAccesses::cpu.inst       429926                       # number of overall (read+write) accesses (Count)
system.cpu.icache.overallAccesses::total       429926                       # number of overall (read+write) accesses (Count)
system.cpu.icache.demandMissRate::cpu.inst     0.057687                       # miss rate for demand accesses (Ratio)
system.cpu.icache.demandMissRate::total      0.057687                       # miss rate for demand accesses (Ratio)
system.cpu.icache.overallMissRate::cpu.inst     0.057687                       # miss rate for overall accesses (Ratio)
system.cpu.icache.overallMissRate::total     0.057687                       # miss rate for overall accesses (Ratio)
system.cpu.icache.demandAvgMissLatency::cpu.inst 17825.672352                       # average overall miss latency in ticks ((Tick/Count))
system.cpu.icache.demandAvgMissLatency::total 17825.672352                       # average overall miss latency in ticks ((Tick/Count))
system.cpu.icache.overallAvgMissLatency::cpu.inst 17825.672352                       # average overall miss latency ((Tick/Count))
system.cpu.icache.overallAvgMissLatency::total 17825.672352                       # average overall miss latency ((Tick/Count))
system.cpu.icache.blockedCycles::no_mshrs          226                       # number of cycles access was blocked (Cycle)
system.cpu.icache.blockedCycles::no_targets            0                       # number of cycles access was blocked (Cycle)
system.cpu.icache.blockedCauses::no_mshrs            3                       # number of times access was blocked (Count)
system.cpu.icache.blockedCauses::no_targets            0                       # number of times access was blocked (Count)
system.cpu.icache.avgBlocked::no_mshrs      75.333333                       # average number of cycles each access was blocked ((Cycle/Count))
system.cpu.icache.avgBlocked::no_targets          nan                       # average number of cycles each access was blocked ((Cycle/Count))
system.cpu.icache.demandMshrHits::cpu.inst          758                       # number of demand (read+write) MSHR hits (Count)
system.cpu.icache.demandMshrHits::total           758                       # number of demand (read+write) MSHR hits (Count)
system.cpu.icache.overallMshrHits::cpu.inst          758                       # number of overall MSHR hits (Count)
system.cpu.icache.overallMshrHits::total          758                       # number of overall MSHR hits (Count)
system.cpu.icache.demandMshrMisses::cpu.inst        24043                       # number of demand (read+write) MSHR misses (Count)
system.cpu.icache.demandMshrMisses::total        24043                       # number of demand (read+write) MSHR misses (Count)
system.cpu.icache.overallMshrMisses::cpu.inst        24043                       # number of overall MSHR misses (Count)
system.cpu.icache.overallMshrMisses::total        24043                       # number of overall MSHR misses (Count)
system.cpu.icache.demandMshrMissLatency::cpu.inst    380851000                       # number of demand (read+write) MSHR miss ticks (Tick)
system.cpu.icache.demandMshrMissLatency::total    380851000                       # number of demand (read+write) MSHR miss ticks (Tick)
system.cpu.icache.overallMshrMissLatency::cpu.inst    380851000                       # number of overall MSHR miss ticks (Tick)
system.cpu.icache.overallMshrMissLatency::total    380851000                       # number of overall MSHR miss ticks (Tick)
system.cpu.icache.demandMshrMissRate::cpu.inst     0.055924                       # mshr miss ratio for demand accesses (Ratio)
system.cpu.icache.demandMshrMissRate::total     0.055924                       # mshr miss ratio for demand accesses (Ratio)
system.cpu.icache.overallMshrMissRate::cpu.inst     0.055924                       # mshr miss ratio for overall accesses (Ratio)
system.cpu.icache.overallMshrMissRate::total     0.055924                       # mshr miss ratio for overall accesses (Ratio)
system.cpu.icache.demandAvgMshrMissLatency::cpu.inst 15840.410930                       # average overall mshr miss latency ((Tick/Count))
system.cpu.icache.demandAvgMshrMissLatency::total 15840.410930                       # average overall mshr miss latency ((Tick/Count))
system.cpu.icache.overallAvgMshrMissLatency::cpu.inst 15840.410930                       # average overall mshr miss latency ((Tick/Count))
system.cpu.icache.overallAvgMshrMissLatency::total 15840.410930                       # average overall mshr miss latency ((Tick/Count))
system.cpu.icache.replacements                  23786                       # number of replacements (Count)
system.cpu.icache.ReadReq.hits::cpu.inst       405125                       # number of ReadReq hits (Count)
system.cpu.icache.ReadReq.hits::total          405125                       # number of ReadReq hits (Count)
system.cpu.icache.ReadReq.misses::cpu.inst        24801                       # number of ReadReq misses (Count)
system.cpu.icache.ReadReq.misses::total         24801                       # number of ReadReq misses (Count)
system.cpu.icache.ReadReq.missLatency::cpu.inst    442094500                       # number of ReadReq miss ticks (Tick)
system.cpu.icache.ReadReq.missLatency::total    442094500                       # number of ReadReq miss ticks (Tick)
system.cpu.icache.ReadReq.accesses::cpu.inst       429926                       # number of ReadReq accesses(hits+misses) (Count)
system.cpu.icache.ReadReq.accesses::total       429926                       # number of ReadReq accesses(hits+misses) (Count)
system.cpu.icache.ReadReq.missRate::cpu.inst     0.057687                       # miss rate for ReadReq accesses (Ratio)
system.cpu.icache.ReadReq.missRate::total     0.057687                       # miss rate for ReadReq accesses (Ratio)
system.cpu.icache.ReadReq.avgMissLatency::cpu.inst 17825.672352                       # average ReadReq miss latency ((Tick/Count))
system.cpu.icache.ReadReq.avgMissLatency::total 17825.672352                       # average ReadReq miss latency ((Tick/Count))
system.cpu.icache.ReadReq.mshrHits::cpu.inst          758                       # number of ReadReq MSHR hits (Count)
system.cpu.icache.ReadReq.mshrHits::total          758                       # number of ReadReq MSHR hits (Count)
system.cpu.icache.ReadReq.mshrMisses::cpu.inst        24043                       # number of ReadReq MSHR misses (Count)
system.cpu.icache.ReadReq.mshrMisses::total        24043                       # number of ReadReq MSHR misses (Count)
system.cpu.icache.ReadReq.mshrMissLatency::cpu.inst    380851000                       # number of ReadReq MSHR miss ticks (Tick)
system.cpu.icache.ReadReq.mshrMissLatency::total    380851000                       # number of ReadReq MSHR miss ticks (Tick)
system.cpu.icache.ReadReq.mshrMissRate::cpu.inst     0.055924                       # mshr miss rate for ReadReq accesses (Ratio)
system.cpu.icache.ReadReq.mshrMissRate::total     0.055924                       # mshr miss rate for ReadReq accesses (Ratio)
system.cpu.icache.ReadReq.avgMshrMissLatency::cpu.inst 15840.410930                       # average ReadReq mshr miss latency ((Tick/Count))
system.cpu.icache.ReadReq.avgMshrMissLatency::total 15840.410930                       # average ReadReq mshr miss latency ((Tick/Count))
system.cpu.icache.power_state.pwrStateResidencyTicks::UNDEFINED   1184027000                       # Cumulative time (in ticks) in various power states (Tick)
system.cpu.icache.tags.tagsInUse           253.202501                       # Average ticks per tags in use ((Tick/Count))
system.cpu.icache.tags.totalRefs               429167                       # Total number of references to valid blocks. (Count)
system.cpu.icache.tags.sampledRefs              24042                       # Sample count of references to valid blocks. (Count)
system.cpu.icache.tags.avgRefs              17.850720                       # Average number of references to valid blocks. ((Count/Count))
system.cpu.icache.tags.warmupTick               82000                       # The tick when the warmup percentage was hit. (Tick)
system.cpu.icache.tags.occupancies::cpu.inst   253.202501                       # Average occupied blocks per tick, per requestor ((Count/Tick))
system.cpu.icache.tags.avgOccs::cpu.inst     0.989072                       # Average percentage of cache occupancy ((Ratio/Tick))
system.cpu.icache.tags.avgOccs::total        0.989072                       # Average percentage of cache occupancy ((Ratio/Tick))
system.cpu.icache.tags.occupanciesTaskId::1024          256                       # Occupied blocks per task id (Count)
system.cpu.icache.tags.ageTaskId_1024::0          120                       # Occupied blocks per task id, per block age (Count)
system.cpu.icache.tags.ageTaskId_1024::2          134                       # Occupied blocks per task id, per block age (Count)
system.cpu.icache.tags.ageTaskId_1024::3            2                       # Occupied blocks per task id, per block age (Count)
system.cpu.icache.tags.ratioOccsTaskId::1024            1                       # Ratio of occupied blocks and all blocks, per task id (Ratio)
system.cpu.icache.tags.tagAccesses            1743746                       # Number of tag accesses (Count)
system.cpu.icache.tags.dataAccesses           1743746                       # Number of data accesses (Count)
system.cpu.icache.tags.power_state.pwrStateResidencyTicks::UNDEFINED   1184027000                       # Cumulative time (in ticks) in various power states (Tick)
system.cpu.iew.idleCycles                           0                       # Number of cycles IEW is idle (Cycle)
system.cpu.iew.squashCycles                     12706                       # Number of cycles IEW is squashing (Cycle)
system.cpu.iew.blockCycles                     107350                       # Number of cycles IEW is blocking (Cycle)
system.cpu.iew.unblockCycles                     3649                       # Number of cycles IEW is unblocking (Cycle)
system.cpu.iew.dispatchedInsts                5792813                       # Number of instructions dispatched to IQ (Count)
system.cpu.iew.dispSquashedInsts                  366                       # Number of squashed instructions skipped by dispatch (Count)
system.cpu.iew.dispLoadInsts                   795195                       # Number of dispatched load instructions (Count)
system.cpu.iew.dispStoreInsts                  519305                       # Number of dispatched store instructions (Count)
system.cpu.iew.dispNonSpecInsts                  2065                       # Number of dispatched non-speculative instructions (Count)
system.cpu.iew.iqFullEvents                      1161                       # Number of times the IQ has become full, causing a stall (Count)
system.cpu.iew.lsqFullEvents                     1275                       # Number of times the LSQ has become full, causing a stall (Count)
system.cpu.iew.memOrderViolationEvents           1207                       # Number of memory order violations (Count)
system.cpu.iew.predictedTakenIncorrect           2240                       # Number of branches that were predicted taken incorrectly (Count)
system.cpu.iew.predictedNotTakenIncorrect        11773                       # Number of branches that were predicted not taken incorrectly (Count)
system.cpu.iew.branchMispredicts                14013                       # Number of branch mispredicts detected at execute (Count)
system.cpu.iew.instsToCommit                  5610978                       # Cumulative count of insts sent to commit (Count)
system.cpu.iew.writebackCount                 5604624                       # Cumulative count of insts written-back (Count)
system.cpu.iew.producerInst                   3858922                       # Number of instructions producing a value (Count)
system.cpu.iew.consumerInst                   6413908                       # Number of instructions consuming a value (Count)
system.cpu.iew.wbRate                        2.366763                       # Insts written-back per cycle ((Count/Cycle))
system.cpu.iew.wbFanout                      0.601649                       # Average fanout of values written-back ((Count/Count))
system.cpu.interrupts.clk_domain.clock           8000                       # Clock period in ticks (Tick)
system.cpu.lsq0.forwLoads                      138668                       # Number of loads that had data forwarded from stores (Count)
system.cpu.lsq0.squashedLoads                   68158                       # Number of loads squashed (Count)
system.cpu.lsq0.ignoredResponses                   33                       # Number of memory responses ignored because the instruction is squashed (Count)
system.cpu.lsq0.memOrderViolation                1207                       # Number of memory ordering violations (Count)
system.cpu.lsq0.squashedStores                  54287                       # Number of stores squashed (Count)
system.cpu.lsq0.rescheduledLoads                 7032                       # Number of loads that were rescheduled (Count)
system.cpu.lsq0.blockedByCache                    145                       # Number of times an access to memory failed due to the cache being blocked (Count)
system.cpu.lsq0.loadToUse::samples             727037                       # Distribution of cycle latency between the first time a load is issued and its completion (Unspecified)
system.cpu.lsq0.loadToUse::mean              4.286648                       # Distribution of cycle latency between the first time a load is issued and its completion (Unspecified)
system.cpu.lsq0.loadToUse::stdev            14.310521                       # Distribution of cycle latency between the first time a load is issued and its completion (Unspecified)
system.cpu.lsq0.loadToUse::0-9                 719446     98.96%     98.96% # Distribution of cycle latency between the first time a load is issued and its completion (Unspecified)
system.cpu.lsq0.loadToUse::10-19                  252      0.03%     98.99% # Distribution of cycle latency between the first time a load is issued and its completion (Unspecified)
system.cpu.lsq0.loadToUse::20-29                  324      0.04%     99.04% # Distribution of cycle latency between the first time a load is issued and its completion (Unspecified)
system.cpu.lsq0.loadToUse::30-39                 1054      0.14%     99.18% # Distribution of cycle latency between the first time a load is issued and its completion (Unspecified)
system.cpu.lsq0.loadToUse::40-49                   52      0.01%     99.19% # Distribution of cycle latency between the first time a load is issued and its completion (Unspecified)
system.cpu.lsq0.loadToUse::50-59                   18      0.00%     99.19% # Distribution of cycle latency between the first time a load is issued and its completion (Unspecified)
system.cpu.lsq0.loadToUse::60-69                  152      0.02%     99.21% # Distribution of cycle latency between the first time a load is issued and its completion (Unspecified)
system.cpu.lsq0.loadToUse::70-79                  488      0.07%     99.28% # Distribution of cycle latency between the first time a load is issued and its completion (Unspecified)
system.cpu.lsq0.loadToUse::80-89                  177      0.02%     99.30% # Distribution of cycle latency between the first time a load is issued and its completion (Unspecified)
system.cpu.lsq0.loadToUse::90-99                   77      0.01%     99.31% # Distribution of cycle latency between the first time a load is issued and its completion (Unspecified)
system.cpu.lsq0.loadToUse::100-109                 69      0.01%     99.32% # Distribution of cycle latency between the first time a load is issued and its completion (Unspecified)
system.cpu.lsq0.loadToUse::110-119                175      0.02%     99.35% # Distribution of cycle latency between the first time a load is issued and its completion (Unspecified)
system.cpu.lsq0.loadToUse::120-129                575      0.08%     99.43% # Distribution of cycle latency between the first time a load is issued and its completion (Unspecified)
system.cpu.lsq0.loadToUse::130-139               2000      0.28%     99.70% # Distribution of cycle latency between the first time a load is issued and its completion (Unspecified)
[...]
system.mem_ctrl.requestorReadAvgLat::cpu.inst     25666.45                       # Per-requestor read average memory access latency ((Tick/Count))
system.mem_ctrl.requestorReadAvgLat::cpu.data     28179.93                       # Per-requestor read average memory access latency ((Tick/Count))
system.mem_ctrl.dram.bytesRead::cpu.inst        97088                       # Number of bytes read from this memory (Byte)
system.mem_ctrl.dram.bytesRead::cpu.data       134272                       # Number of bytes read from this memory (Byte)
system.mem_ctrl.dram.bytesRead::total          231360                       # Number of bytes read from this memory (Byte)
system.mem_ctrl.dram.bytesInstRead::cpu.inst        97088                       # Number of instructions bytes read from this memory (Byte)
system.mem_ctrl.dram.bytesInstRead::total        97088                       # Number of instructions bytes read from this memory (Byte)
system.mem_ctrl.dram.numReads::cpu.inst          1517                       # Number of read requests responded to by this memory (Count)
system.mem_ctrl.dram.numReads::cpu.data          2098                       # Number of read requests responded to by this memory (Count)
system.mem_ctrl.dram.numReads::total             3615                       # Number of read requests responded to by this memory (Count)
system.mem_ctrl.dram.bwRead::cpu.inst        81998130                       # Total read bandwidth from this memory ((Byte/Second))
system.mem_ctrl.dram.bwRead::cpu.data       113402819                       # Total read bandwidth from this memory ((Byte/Second))
system.mem_ctrl.dram.bwRead::total          195400949                       # Total read bandwidth from this memory ((Byte/Second))
system.mem_ctrl.dram.bwInstRead::cpu.inst     81998130                       # Instruction read bandwidth from this memory ((Byte/Second))
system.mem_ctrl.dram.bwInstRead::total       81998130                       # Instruction read bandwidth from this memory ((Byte/Second))
system.mem_ctrl.dram.bwTotal::cpu.inst       81998130                       # Total bandwidth to/from this memory ((Byte/Second))
system.mem_ctrl.dram.bwTotal::cpu.data      113402819                       # Total bandwidth to/from this memory ((Byte/Second))
system.mem_ctrl.dram.bwTotal::total         195400949                       # Total bandwidth to/from this memory ((Byte/Second))
system.mem_ctrl.dram.readBursts                  3615                       # Number of DRAM read bursts (Count)
system.mem_ctrl.dram.writeBursts                    0                       # Number of DRAM write bursts (Count)
system.mem_ctrl.dram.perBankRdBursts::0           389                       # Per bank write bursts (Count)
system.mem_ctrl.dram.perBankRdBursts::1           220                       # Per bank write bursts (Count)
system.mem_ctrl.dram.perBankRdBursts::2           275                       # Per bank write bursts (Count)
system.mem_ctrl.dram.perBankRdBursts::3           215                       # Per bank write bursts (Count)
system.mem_ctrl.dram.perBankRdBursts::4           196                       # Per bank write bursts (Count)
system.mem_ctrl.dram.perBankRdBursts::5           104                       # Per bank write bursts (Count)
system.mem_ctrl.dram.perBankRdBursts::6           152                       # Per bank write bursts (Count)
system.mem_ctrl.dram.perBankRdBursts::7           154                       # Per bank write bursts (Count)
system.mem_ctrl.dram.perBankRdBursts::8           294                       # Per bank write bursts (Count)
system.mem_ctrl.dram.perBankRdBursts::9           273                       # Per bank write bursts (Count)
system.mem_ctrl.dram.perBankRdBursts::10          169                       # Per bank write bursts (Count)
system.mem_ctrl.dram.perBankRdBursts::11          236                       # Per bank write bursts (Count)
system.mem_ctrl.dram.perBankRdBursts::12          131                       # Per bank write bursts (Count)
system.mem_ctrl.dram.perBankRdBursts::13          225                       # Per bank write bursts (Count)
system.mem_ctrl.dram.perBankRdBursts::14          248                       # Per bank write bursts (Count)
system.mem_ctrl.dram.perBankRdBursts::15          334                       # Per bank write bursts (Count)
system.mem_ctrl.dram.perBankWrBursts::0             0                       # Per bank write bursts (Count)
system.mem_ctrl.dram.perBankWrBursts::1             0                       # Per bank write bursts (Count)
system.mem_ctrl.dram.perBankWrBursts::2             0                       # Per bank write bursts (Count)
system.mem_ctrl.dram.perBankWrBursts::3             0                       # Per bank write bursts (Count)
system.mem_ctrl.dram.perBankWrBursts::4             0                       # Per bank write bursts (Count)
system.mem_ctrl.dram.perBankWrBursts::5             0                       # Per bank write bursts (Count)
system.mem_ctrl.dram.perBankWrBursts::6             0                       # Per bank write bursts (Count)
system.mem_ctrl.dram.perBankWrBursts::7             0                       # Per bank write bursts (Count)
system.mem_ctrl.dram.perBankWrBursts::8             0                       # Per bank write bursts (Count)
system.mem_ctrl.dram.perBankWrBursts::9             0                       # Per bank write bursts (Count)
system.mem_ctrl.dram.perBankWrBursts::10            0                       # Per bank write bursts (Count)
system.mem_ctrl.dram.perBankWrBursts::11            0                       # Per bank write bursts (Count)
system.mem_ctrl.dram.perBankWrBursts::12            0                       # Per bank write bursts (Count)
system.mem_ctrl.dram.perBankWrBursts::13            0                       # Per bank write bursts (Count)
system.mem_ctrl.dram.perBankWrBursts::14            0                       # Per bank write bursts (Count)
system.mem_ctrl.dram.perBankWrBursts::15            0                       # Per bank write bursts (Count)
system.mem_ctrl.dram.totQLat                 30276250                       # Total ticks spent queuing (Tick)
system.mem_ctrl.dram.totBusLat               18075000                       # Total ticks spent in databus transfers (Tick)
system.mem_ctrl.dram.totMemAccLat            98057500                       # Total ticks spent from burst creation until serviced by the DRAM (Tick)
system.mem_ctrl.dram.avgQLat                  8375.17                       # Average queueing delay per DRAM burst ((Tick/Count))
system.mem_ctrl.dram.avgBusLat                5000.00                       # Average bus latency per DRAM burst ((Tick/Count))
system.mem_ctrl.dram.avgMemAccLat            27125.17                       # Average memory access latency per DRAM burst ((Tick/Count))
system.mem_ctrl.dram.readRowHits                 2869                       # Number of row buffer hits during reads (Count)
system.mem_ctrl.dram.writeRowHits                   0                       # Number of row buffer hits during writes (Count)
system.mem_ctrl.dram.readRowHitRate             79.36                       # Row buffer hit rate for reads (Ratio)
system.mem_ctrl.dram.writeRowHitRate              nan                       # Row buffer hit rate for writes (Ratio)
system.mem_ctrl.dram.bytesPerActivate::samples          745                       # Bytes accessed per row activation (Byte)
system.mem_ctrl.dram.bytesPerActivate::mean   310.206711                       # Bytes accessed per row activation (Byte)
system.mem_ctrl.dram.bytesPerActivate::gmean   186.065424                       # Bytes accessed per row activation (Byte)
system.mem_ctrl.dram.bytesPerActivate::stdev   326.982366                       # Bytes accessed per row activation (Byte)
system.mem_ctrl.dram.bytesPerActivate::0-127          251     33.69%     33.69% # Bytes accessed per row activation (Byte)
system.mem_ctrl.dram.bytesPerActivate::128-255          209     28.05%     61.74% # Bytes accessed per row activation (Byte)
system.mem_ctrl.dram.bytesPerActivate::256-383           73      9.80%     71.54% # Bytes accessed per row activation (Byte)
system.mem_ctrl.dram.bytesPerActivate::384-511           44      5.91%     77.45% # Bytes accessed per row activation (Byte)
system.mem_ctrl.dram.bytesPerActivate::512-639           34      4.56%     82.01% # Bytes accessed per row activation (Byte)
system.mem_ctrl.dram.bytesPerActivate::640-767           15      2.01%     84.03% # Bytes accessed per row activation (Byte)
system.mem_ctrl.dram.bytesPerActivate::768-895           18      2.42%     86.44% # Bytes accessed per row activation (Byte)
system.mem_ctrl.dram.bytesPerActivate::896-1023           10      1.34%     87.79% # Bytes accessed per row activation (Byte)
system.mem_ctrl.dram.bytesPerActivate::1024-1151           91     12.21%    100.00% # Bytes accessed per row activation (Byte)
system.mem_ctrl.dram.bytesPerActivate::total          745                       # Bytes accessed per row activation (Byte)
system.mem_ctrl.dram.bytesRead                 231360                       # Total bytes read (Byte)
system.mem_ctrl.dram.bytesWritten                   0                       # Total bytes written (Byte)
system.mem_ctrl.dram.avgRdBW               195.400949                       # Average DRAM read bandwidth in MiBytes/s ((Byte/Second))
system.mem_ctrl.dram.avgWrBW                        0                       # Average DRAM write bandwidth in MiBytes/s ((Byte/Second))
system.mem_ctrl.dram.peakBW                  12800.00                       # Theoretical peak bandwidth in MiByte/s ((Byte/Second))
system.mem_ctrl.dram.busUtil                     1.53                       # Data bus utilization in percentage (Ratio)
system.mem_ctrl.dram.busUtilRead                 1.53                       # Data bus utilization in percentage for reads (Ratio)
system.mem_ctrl.dram.busUtilWrite                0.00                       # Data bus utilization in percentage for writes (Ratio)
system.mem_ctrl.dram.pageHitRate                79.36                       # Row buffer hit rate, read and write combined (Ratio)
system.mem_ctrl.dram.power_state.pwrStateResidencyTicks::UNDEFINED   1184027000                       # Cumulative time (in ticks) in various power states (Tick)
system.mem_ctrl.dram.rank0.actEnergy          2406180                       # Energy for activate commands per rank (pJ) (Joule)
system.mem_ctrl.dram.rank0.preEnergy          1278915                       # Energy for precharge commands per rank (pJ) (Joule)
system.mem_ctrl.dram.rank0.readEnergy        12173700                       # Energy for read commands per rank (pJ) (Joule)
system.mem_ctrl.dram.rank0.writeEnergy              0                       # Energy for write commands per rank (pJ) (Joule)
system.mem_ctrl.dram.rank0.refreshEnergy 93425280.000000                       # Energy for refresh commands per rank (pJ) (Joule)
system.mem_ctrl.dram.rank0.actBackEnergy    106576890                       # Energy for active background per rank (pJ) (Joule)
system.mem_ctrl.dram.rank0.preBackEnergy    364917600                       # Energy for precharge background per rank (pJ) (Joule)
system.mem_ctrl.dram.rank0.actPowerDownEnergy            0                       # Energy for active power-down per rank (pJ) (Joule)
system.mem_ctrl.dram.rank0.prePowerDownEnergy            0                       # Energy for precharge power-down per rank (pJ) (Joule)
system.mem_ctrl.dram.rank0.selfRefreshEnergy            0                       # Energy for self refresh per rank (pJ) (Joule)
system.mem_ctrl.dram.rank0.totalEnergy      580778565                       # Total energy per rank (pJ) (Joule)
system.mem_ctrl.dram.rank0.averagePower    490.511251                       # Core power per rank (mW) (Watt)
system.mem_ctrl.dram.rank0.totalIdleTime            0                       # Total Idle time Per DRAM Rank (Tick)
system.mem_ctrl.dram.rank0.pwrStateTime::IDLE    947556000                       # Time in different power states (Tick)
system.mem_ctrl.dram.rank0.pwrStateTime::REF     39520000                       # Time in different power states (Tick)
system.mem_ctrl.dram.rank0.pwrStateTime::SREF            0                       # Time in different power states (Tick)
system.mem_ctrl.dram.rank0.pwrStateTime::PRE_PDN            0                       # Time in different power states (Tick)
system.mem_ctrl.dram.rank0.pwrStateTime::ACT    196951000                       # Time in different power states (Tick)
system.mem_ctrl.dram.rank0.pwrStateTime::ACT_PDN            0                       # Time in different power states (Tick)
system.mem_ctrl.dram.rank1.actEnergy          2920260                       # Energy for activate commands per rank (pJ) (Joule)
system.mem_ctrl.dram.rank1.preEnergy          1548360                       # Energy for precharge commands per rank (pJ) (Joule)
system.mem_ctrl.dram.rank1.readEnergy        13637400                       # Energy for read commands per rank (pJ) (Joule)
system.mem_ctrl.dram.rank1.writeEnergy              0                       # Energy for write commands per rank (pJ) (Joule)
system.mem_ctrl.dram.rank1.refreshEnergy 93425280.000000                       # Energy for refresh commands per rank (pJ) (Joule)
system.mem_ctrl.dram.rank1.actBackEnergy    309259770                       # Energy for active background per rank (pJ) (Joule)
system.mem_ctrl.dram.rank1.preBackEnergy    194237280                       # Energy for precharge background per rank (pJ) (Joule)
system.mem_ctrl.dram.rank1.actPowerDownEnergy            0                       # Energy for active power-down per rank (pJ) (Joule)
system.mem_ctrl.dram.rank1.prePowerDownEnergy            0                       # Energy for precharge power-down per rank (pJ) (Joule)
system.mem_ctrl.dram.rank1.selfRefreshEnergy            0                       # Energy for self refresh per rank (pJ) (Joule)
system.mem_ctrl.dram.rank1.totalEnergy      615028350                       # Total energy per rank (pJ) (Joule)
system.mem_ctrl.dram.rank1.averagePower    519.437775                       # Core power per rank (mW) (Watt)
system.mem_ctrl.dram.rank1.totalIdleTime            0                       # Total Idle time Per DRAM Rank (Tick)
system.mem_ctrl.dram.rank1.pwrStateTime::IDLE    501995500                       # Time in different power states (Tick)
system.mem_ctrl.dram.rank1.pwrStateTime::REF     39520000                       # Time in different power states (Tick)
system.mem_ctrl.dram.rank1.pwrStateTime::SREF            0                       # Time in different power states (Tick)
system.mem_ctrl.dram.rank1.pwrStateTime::PRE_PDN            0                       # Time in different power states (Tick)
system.mem_ctrl.dram.rank1.pwrStateTime::ACT    642511500                       # Time in different power states (Tick)
system.mem_ctrl.dram.rank1.pwrStateTime::ACT_PDN            0                       # Time in different power states (Tick)
system.mem_ctrl.power_state.pwrStateResidencyTicks::UNDEFINED   1184027000                       # Cumulative time (in ticks) in various power states (Tick)
system.membus.transDist::ReadResp                2806                       # Transaction distribution (Count)
system.membus.transDist::CleanEvict                 4                       # Transaction distribution (Count)
system.membus.transDist::ReadExReq                809                       # Transaction distribution (Count)
system.membus.transDist::ReadExResp               809                       # Transaction distribution (Count)
system.membus.transDist::ReadSharedReq           2806                       # Transaction distribution (Count)
system.membus.pktCount_system.l2cache.mem_side_port::system.mem_ctrl.port         7234                       # Packet count per connected requestor and responder (Count)
system.membus.pktCount_system.l2cache.mem_side_port::total         7234                       # Packet count per connected requestor and responder (Count)
system.membus.pktCount::total                    7234                       # Packet count per connected requestor and responder (Count)
system.membus.pktSize_system.l2cache.mem_side_port::system.mem_ctrl.port       231360                       # Cumulative packet size per connected requestor and responder (Byte)
system.membus.pktSize_system.l2cache.mem_side_port::total       231360                       # Cumulative packet size per connected requestor and responder (Byte)
system.membus.pktSize::total                   231360                       # Cumulative packet size per connected requestor and responder (Byte)
system.membus.snoops                                0                       # Total snoops (Count)
system.membus.snoopTraffic                          0                       # Total snoop traffic (Byte)
system.membus.snoopFanout::samples               3615                       # Request fanout histogram (Count)
system.membus.snoopFanout::mean                     0                       # Request fanout histogram (Count)
system.membus.snoopFanout::stdev                    0                       # Request fanout histogram (Count)
system.membus.snoopFanout::underflows               0      0.00%      0.00% # Request fanout histogram (Count)
system.membus.snoopFanout::0                     3615    100.00%    100.00% # Request fanout histogram (Count)
system.membus.snoopFanout::1                        0      0.00%    100.00% # Request fanout histogram (Count)
system.membus.snoopFanout::overflows                0      0.00%    100.00% # Request fanout histogram (Count)
system.membus.snoopFanout::min_value                0                       # Request fanout histogram (Count)
system.membus.snoopFanout::max_value                0                       # Request fanout histogram (Count)
system.membus.snoopFanout::total                 3615                       # Request fanout histogram (Count)
system.membus.power_state.pwrStateResidencyTicks::UNDEFINED   1184027000                       # Cumulative time (in ticks) in various power states (Tick)
system.membus.reqLayer2.occupancy             1809500                       # Layer occupancy (ticks) (Tick)
system.membus.reqLayer2.utilization               0.0                       # Layer utilization (Ratio)
system.membus.respLayer0.occupancy            9815500                       # Layer occupancy (ticks) (Tick)
system.membus.respLayer0.utilization              0.0                       # Layer utilization (Ratio)
system.membus.snoop_filter.totRequests           3619                       # Total number of requests made to the snoop filter. (Count)
system.membus.snoop_filter.hitSingleRequests            4                       # Number of requests hitting in the snoop filter with a single holder of the requested data. (Count)
system.membus.snoop_filter.hitMultiRequests            0                       # Number of requests hitting in the snoop filter with multiple (>1) holders of the requested data. (Count)
system.membus.snoop_filter.totSnoops                0                       # Total number of snoops made to the snoop filter. (Count)
system.membus.snoop_filter.hitSingleSnoops            0                       # Number of snoops hitting in the snoop filter with a single holder of the requested data. (Count)
system.membus.snoop_filter.hitMultiSnoops            0                       # Number of snoops hitting in the snoop filter with multiple (>1) holders of the requested data. (Count)
system.workload.inst.arm                            0                       # number of arm instructions executed (Count)
system.workload.inst.quiesce                        0                       # number of quiesce instructions executed (Count)

---------- End Simulation Statistics   ----------
