
---------- Begin Simulation Statistics ----------
simSeconds                                   0.001161                       # Number of seconds simulated (Second)
simTicks                                   1160943000                       # Number of ticks simulated (Tick)
finalTick                                  1160943000                       # Number of ticks from beginning of simulation (restored from checkpoints and never reset) (Tick)
simFreq                                  1000000000000                       # The number of ticks per simulated second ((Tick/Second))
hostSeconds                                     11.76                       # Real time elapsed on the host (Second)
hostTickRate                                 98720269                       # The number of ticks simulated per host second (ticks/s) ((Tick/Second))
hostMemory                                    1225248                       # Number of bytes of host memory used (Byte)
simInsts                                      2849860                       # Number of instructions simulated (Count)
simOps                                        5296197                       # Number of ops (including micro ops) simulated (Count)
hostInstRate                                   242335                       # Simulator instruction rate (inst/s) ((Count/Second))
hostOpRate                                     450356                       # Simulator op (including micro ops) rate (op/s) ((Count/Second))
system.clk_domain.clock                           500                       # Clock period in ticks (Tick)
system.clk_domain.voltage_domain.voltage            1                       # Voltage in Volts (Volt)
system.cpu.numCycles                          2321887                       # Number of cpu cycles simulated (Cycle)
system.cpu.numWorkItemsStarted                      0                       # Number of work items this cpu started (Count)
system.cpu.numWorkItemsCompleted                    0                       # Number of work items this cpu completed (Count)
system.cpu.instsAdded                         5687489                       # Number of instructions added to the IQ (excludes non-spec) (Count)
system.cpu.nonSpecInstsAdded                     6121                       # Number of non-speculative instructions added to the IQ (Count)
system.cpu.instsIssued                        5582290                       # Number of instructions issued (Count)
system.cpu.squashedInstsIssued                   5444                       # Number of squashed instructions issued (Count)
system.cpu.squashedInstsExamined               397407                       # Number of squashed instructions iterated over during squash; mainly for profiling (Count)
system.cpu.squashedOperandsExamined            671557                       # Number of squashed operands that are examined and possibly removed from graph (Count)
system.cpu.squashedNonSpecRemoved                  49                       # Number of squashed non-spec instructions that were removed (Count)
system.cpu.numIssuedDist::samples             2192726                       # Number of insts issued each cycle (Count)
system.cpu.numIssuedDist::mean               2.545822                       # Number of insts issued each cycle (Count)
system.cpu.numIssuedDist::stdev              2.485582                       # Number of insts issued each cycle (Count)
system.cpu.numIssuedDist::underflows                0      0.00%      0.00% # Number of insts issued each cycle (Count)
system.cpu.numIssuedDist::0                    770183     35.12%     35.12% # Number of insts issued each cycle (Count)
system.cpu.numIssuedDist::1                    199911      9.12%     44.24% # Number of insts issued each cycle (Count)
system.cpu.numIssuedDist::2                    220239     10.04%     54.29% # Number of insts issued each cycle (Count)
system.cpu.numIssuedDist::3                    240768     10.98%     65.27% # Number of insts issued each cycle (Count)
system.cpu.numIssuedDist::4                    193000      8.80%     74.07% # Number of insts issued each cycle (Count)
system.cpu.numIssuedDist::5                    187760      8.56%     82.63% # Number of insts issued each cycle (Count)
system.cpu.numIssuedDist::6                    212568      9.69%     92.32% # Number of insts issued each cycle (Count)
system.cpu.numIssuedDist::7                    112987      5.15%     97.48% # Number of insts issued each cycle (Count)
system.cpu.numIssuedDist::8                     55310      2.52%    100.00% # Number of insts issued each cycle (Count)
system.cpu.numIssuedDist::overflows                 0      0.00%    100.00% # Number of insts issued each cycle (Count)
system.cpu.numIssuedDist::min_value                 0                       # Number of insts issued each cycle (Count)
system.cpu.numIssuedDist::max_value                 8                       # Number of insts issued each cycle (Count)
system.cpu.numIssuedDist::total               2192726                       # Number of insts issued each cycle (Count)
system.cpu.statFuBusy::No_OpClass                   0      0.00%      0.00% # attempts to use FU when none available (Count)
system.cpu.statFuBusy::IntAlu                   72465     64.25%     64.25% # attempts to use FU when none available (Count)
system.cpu.statFuBusy::IntMult                      0      0.00%     64.25% # attempts to use FU when none available (Count)
system.cpu.statFuBusy::IntDiv                       0      0.00%     64.25% # attempts to use FU when none available (Count)
system.cpu.statFuBusy::FloatAdd                     0      0.00%     64.25% # attempts to use FU when none available (Count)
system.cpu.statFuBusy::FloatCmp                     0      0.00%     64.25% # attempts to use FU when none available (Count)
system.cpu.statFuBusy::FloatCvt                     0      0.00%     64.25% # attempts to use FU when none available (Count)
system.cpu.statFuBusy::FloatMult                    0      0.00%     64.25% # attempts to use FU when none available (Count)
system.cpu.statFuBusy::FloatMultAcc                 0      0.00%     64.25% # attempts to use FU when none available (Count)
system.cpu.statFuBusy::FloatDiv                     0      0.00%     64.25% # attempts to use FU when none available (Count)
system.cpu.statFuBusy::FloatMisc                    0      0.00%     64.25% # attempts to use FU when none available (Count)
system.cpu.statFuBusy::FloatSqrt                    0      0.00%     64.25% # attempts to use FU when none available (Count)
system.cpu.statFuBusy::SimdAdd                      0      0.00%     64.25% # attempts to use FU when none available (Count)
system.cpu.statFuBusy::SimdAddAcc                   0      0.00%     64.25% # attempts to use FU when none available (Count)
system.cpu.statFuBusy::SimdAlu                   1018      0.90%     65.15% # attempts to use FU when none available (Count)
system.cpu.statFuBusy::SimdCmp                      0      0.00%     65.15% # attempts to use FU when none available (Count)
system.cpu.statFuBusy::SimdCvt                     16      0.01%     65.16% # attempts to use FU when none available (Count)
system.cpu.statFuBusy::SimdMisc                     1      0.00%     65.16% # attempts to use FU when none available (Count)
system.cpu.statFuBusy::SimdMult                     0      0.00%     65.16% # attempts to use FU when none available (Count)
system.cpu.statFuBusy::SimdMultAcc                  0      0.00%     65.16% # attempts to use FU when none available (Count)
system.cpu.statFuBusy::SimdShift                    0      0.00%     65.16% # attempts to use FU when none available (Count)
system.cpu.statFuBusy::SimdShiftAcc                 0      0.00%     65.16% # attempts to use FU when none available (Count)
system.cpu.statFuBusy::SimdDiv                      0      0.00%     65.16% # attempts to use FU when none available (Count)
system.cpu.statFuBusy::SimdSqrt                     0      0.00%     65.16% # attempts to use FU when none available (Count)
system.cpu.statFuBusy::SimdFloatAdd                 0      0.00%     65.16% # attempts to use FU when none available (Count)
system.cpu.statFuBusy::SimdFloatAlu                 0      0.00%     65.16% # attempts to use FU when none available (Count)
system.cpu.statFuBusy::SimdFloatCmp                 0      0.00%     65.16% # attempts to use FU when none available (Count)
system.cpu.statFuBusy::SimdFloatCvt                 0      0.00%     65.16% # attempts to use FU when none available (Count)
system.cpu.statFuBusy::SimdFloatDiv                 0      0.00%     65.16% # attempts to use FU when none available (Count)
system.cpu.statFuBusy::SimdFloatMisc                0      0.00%     65.16% # attempts to use FU when none available (Count)
system.cpu.statFuBusy::SimdFloatMult                0      0.00%     65.16% # attempts to use FU when none available (Count)
system.cpu.statFuBusy::SimdFloatMultAcc             0      0.00%     65.16% # attempts to use FU when none available (Count)
system.cpu.statFuBusy::SimdFloatSqrt                0      0.00%     65.16% # attempts to use FU when none available (Count)
system.cpu.statFuBusy::SimdReduceAdd                0      0.00%     65.16% # attempts to use FU when none available (Count)
system.cpu.statFuBusy::SimdReduceAlu                0      0.00%     65.16% # attempts to use FU when none available (Count)
system.cpu.statFuBusy::SimdReduceCmp                0      0.00%     65.16% # attempts to use FU when none available (Count)
system.cpu.statFuBusy::SimdFloatReduceAdd            0      0.00%     65.16% # attempts to use FU when none available (Count)
system.cpu.statFuBusy::SimdFloatReduceCmp            0      0.00%     65.16% # attempts to use FU when none available (Count)
system.cpu.statFuBusy::SimdAes                      0      0.00%     65.16% # attempts to use FU when none available (Count)
system.cpu.statFuBusy::SimdAesMix                   0      0.00%     65.16% # attempts to use FU when none available (Count)
system.cpu.statFuBusy::SimdSha1Hash                 0      0.00%     65.16% # attempts to use FU when none available (Count)
system.cpu.statFuBusy::SimdSha1Hash2                0      0.00%     65.16% # attempts to use FU when none available (Count)
system.cpu.statFuBusy::SimdSha256Hash               0      0.00%     65.16% # attempts to use FU when none available (Count)
system.cpu.statFuBusy::SimdSha256Hash2              0      0.00%     65.16% # attempts to use FU when none available (Count)
system.cpu.statFuBusy::SimdShaSigma2                0      0.00%     65.16% # attempts to use FU when none available (Count)
system.cpu.statFuBusy::SimdShaSigma3                0      0.00%     65.16% # attempts to use FU when none available (Count)
system.cpu.statFuBusy::SimdPredAlu                  0      0.00%     65.16% # attempts to use FU when none available (Count)
system.cpu.statFuBusy::MemRead                  17921     15.89%     81.05% # attempts to use FU when none available (Count)
system.cpu.statFuBusy::MemWrite                  9341      8.28%     89.34% # attempts to use FU when none available (Count)
system.cpu.statFuBusy::FloatMemRead              1250      1.11%     90.44% # attempts to use FU when none available (Count)
system.cpu.statFuBusy::FloatMemWrite            10779      9.56%    100.00% # attempts to use FU when none available (Count)
system.cpu.statFuBusy::IprAccess                    0      0.00%    100.00% # attempts to use FU when none available (Count)
system.cpu.statFuBusy::InstPrefetch                 0      0.00%    100.00% # attempts to use FU when none available (Count)
system.cpu.statIssuedInstType_0::No_OpClass        63346      1.13%      1.13% # Number of instructions issued per FU type, per thread (Count)
system.cpu.statIssuedInstType_0::IntAlu       4125404     73.90%     75.04% # Number of instructions issued per FU type, per thread (Count)
system.cpu.statIssuedInstType_0::IntMult         4491      0.08%     75.12% # Number of instructions issued per FU type, per thread (Count)
system.cpu.statIssuedInstType_0::IntDiv         19218      0.34%     75.46% # Number of instructions issued per FU type, per thread (Count)
system.cpu.statIssuedInstType_0::FloatAdd        27240      0.49%     75.95% # Number of instructions issued per FU type, per thread (Count)
system.cpu.statIssuedInstType_0::FloatCmp            0      0.00%     75.95% # Number of instructions issued per FU type, per thread (Count)
system.cpu.statIssuedInstType_0::FloatCvt           32      0.00%     75.95% # Number of instructions issued per FU type, per thread (Count)
system.cpu.statIssuedInstType_0::FloatMult            0      0.00%     75.95% # Number of instructions issued per FU type, per thread (Count)
system.cpu.statIssuedInstType_0::FloatMultAcc            0      0.00%     75.95% # Number of instructions issued per FU type, per thread (Count)
system.cpu.statIssuedInstType_0::FloatDiv            0      0.00%     75.95% # Number of instructions issued per FU type, per thread (Count)
system.cpu.statIssuedInstType_0::FloatMisc            0      0.00%     75.95% # Number of instructions issued per FU type, per thread (Count)
system.cpu.statIssuedInstType_0::FloatSqrt            0      0.00%     75.95% # Number of instructions issued per FU type, per thread (Count)
system.cpu.statIssuedInstType_0::SimdAdd          500      0.01%     75.96% # Number of instructions issued per FU type, per thread (Count)
system.cpu.statIssuedInstType_0::SimdAddAcc            0      0.00%     75.96% # Number of instructions issued per FU type, per thread (Count)
system.cpu.statIssuedInstType_0::SimdAlu        21400      0.38%     76.34% # Number of instructions issued per FU type, per thread (Count)
system.cpu.statIssuedInstType_0::SimdCmp            0      0.00%     76.34% # Number of instructions issued per FU type, per thread (Count)
system.cpu.statIssuedInstType_0::SimdCvt        11293      0.20%     76.54% # Number of instructions issued per FU type, per thread (Count)
system.cpu.statIssuedInstType_0::SimdMisc        25204      0.45%     77.00% # Number of instructions issued per FU type, per thread (Count)
system.cpu.statIssuedInstType_0::SimdMult            0      0.00%     77.00% # Number of instructions issued per FU type, per thread (Count)
system.cpu.statIssuedInstType_0::SimdMultAcc            0      0.00%     77.00% # Number of instructions issued per FU type, per thread (Count)
system.cpu.statIssuedInstType_0::SimdShift          436      0.01%     77.00% # Number of instructions issued per FU type, per thread (Count)
system.cpu.statIssuedInstType_0::SimdShiftAcc            0      0.00%     77.00% # Number of instructions issued per FU type, per thread (Count)
system.cpu.statIssuedInstType_0::SimdDiv            0      0.00%     77.00% # Number of instructions issued per FU type, per thread (Count)
system.cpu.statIssuedInstType_0::SimdSqrt            0      0.00%     77.00% # Number of instructions issued per FU type, per thread (Count)
system.cpu.statIssuedInstType_0::SimdFloatAdd            0      0.00%     77.00% # Number of instructions issued per FU type, per thread (Count)
system.cpu.statIssuedInstType_0::SimdFloatAlu            0      0.00%     77.00% # Number of instructions issued per FU type, per thread (Count)
system.cpu.statIssuedInstType_0::SimdFloatCmp            0      0.00%     77.00% # Number of instructions issued per FU type, per thread (Count)
system.cpu.statIssuedInstType_0::SimdFloatCvt        12052      0.22%     77.22% # Number of instructions issued per FU type, per thread (Count)
system.cpu.statIssuedInstType_0::SimdFloatDiv            0      0.00%     77.22% # Number of instructions issued per FU type, per thread (Count)
system.cpu.statIssuedInstType_0::SimdFloatMisc            0      0.00%     77.22% # Number of instructions issued per FU type, per thread (Count)
system.cpu.statIssuedInstType_0::SimdFloatMult            0      0.00%     77.22% # Number of instructions issued per FU type, per thread (Count)
system.cpu.statIssuedInstType_0::SimdFloatMultAcc            0      0.00%     77.22% # Number of instructions issued per FU type, per thread (Count)
system.cpu.statIssuedInstType_0::SimdFloatSqrt            0      0.00%     77.22% # Number of instructions issued per FU type, per thread (Count)
system.cpu.statIssuedInstType_0::SimdReduceAdd            0      0.00%     77.22% # Number of instructions issued per FU type, per thread (Count)
system.cpu.statIssuedInstType_0::SimdReduceAlu            0      0.00%     77.22% # Number of instructions issued per FU type, per thread (Count)
system.cpu.statIssuedInstType_0::SimdReduceCmp            0      0.00%     77.22% # Number of instructions issued per FU type, per thread (Count)
system.cpu.statIssuedInstType_0::SimdFloatReduceAdd            0      0.00%     77.22% # Number of instructions issued per FU type, per thread (Count)
system.cpu.statIssuedInstType_0::SimdFloatReduceCmp            0      0.00%     77.22% # Number of instructions issued per FU type, per thread (Count)
system.cpu.statIssuedInstType_0::SimdAes            0      0.00%     77.22% # Number of instructions issued per FU type, per thread (Count)
system.cpu.statIssuedInstType_0::SimdAesMix            0      0.00%     77.22% # Number of instructions issued per FU type, per thread (Count)
system.cpu.statIssuedInstType_0::SimdSha1Hash            0      0.00%     77.22% # Number of instructions issued per FU type, per thread (Count)
system.cpu.statIssuedInstType_0::SimdSha1Hash2            0      0.00%     77.22% # Number of instructions issued per FU type, per thread (Count)
system.cpu.statIssuedInstType_0::SimdSha256Hash            0      0.00%     77.22% # Number of instructions issued per FU type, per thread (Count)
system.cpu.statIssuedInstType_0::SimdSha256Hash2            0      0.00%     77.22% # Number of instructions issued per FU type, per thread (Count)
system.cpu.statIssuedInstType_0::SimdShaSigma2            0      0.00%     77.22% # Number of instructions issued per FU type, per thread (Count)
system.cpu.statIssuedInstType_0::SimdShaSigma3            0      0.00%     77.22% # Number of instructions issued per FU type, per thread (Count)
system.cpu.statIssuedInstType_0::SimdPredAlu            0      0.00%     77.22% # Number of instructions issued per FU type, per thread (Count)
system.cpu.statIssuedInstType_0::MemRead       732750     13.13%     90.35% # Number of instructions issued per FU type, per thread (Count)
system.cpu.statIssuedInstType_0::MemWrite       457869      8.20%     98.55% # Number of instructions issued per FU type, per thread (Count)
system.cpu.statIssuedInstType_0::FloatMemRead        42638      0.76%     99.31% # Number of instructions issued per FU type, per thread (Count)
system.cpu.statIssuedInstType_0::FloatMemWrite        38417      0.69%    100.00% # Number of instructions issued per FU type, per thread (Count)
system.cpu.statIssuedInstType_0::IprAccess            0      0.00%    100.00% # Number of instructions issued per FU type, per thread (Count)
system.cpu.statIssuedInstType_0::InstPrefetch            0      0.00%    100.00% # Number of instructions issued per FU type, per thread (Count)
system.cpu.statIssuedInstType_0::total        5582290                       # Number of instructions issued per FU type, per thread (Count)
system.cpu.issueRate                         2.404204                       # Inst issue rate ((Count/Cycle))
system.cpu.fuBusy                              112791                       # FU busy when requested (Count)
system.cpu.fuBusyRate                        0.020205                       # FU busy rate (busy events/executed inst) ((Count/Count))
system.cpu.intInstQueueReads                 13087202                       # Number of integer instruction queue reads (Count)
system.cpu.intInstQueueWrites                 5877299                       # Number of integer instruction queue writes (Count)
system.cpu.intInstQueueWakeupAccesses         5359286                       # Number of integer instruction queue wakeup accesses (Count)
system.cpu.fpInstQueueReads                    388339                       # Number of floating instruction queue reads (Count)
system.cpu.fpInstQueueWrites                   216864                       # Number of floating instruction queue writes (Count)
system.cpu.fpInstQueueWakeupAccesses           178630                       # Number of floating instruction queue wakeup accesses (Count)
system.cpu.vecInstQueueReads                        0                       # Number of vector instruction queue reads (Count)
system.cpu.vecInstQueueWrites                       0                       # Number of vector instruction queue writes (Count)
system.cpu.vecInstQueueWakeupAccesses               0                       # Number of vector instruction queue wakeup accesses (Count)
system.cpu.intAluAccesses                     5431058                       # Number of integer alu accesses (Count)
system.cpu.fpAluAccesses                       200677                       # Number of floating point alu accesses (Count)
system.cpu.vecAluAccesses                           0                       # Number of vector alu accesses (Count)
system.cpu.numInsts                           5553630                       # Number of executed instructions (Count)
system.cpu.numLoadInsts                        767231                       # Number of load instructions executed (Count)
system.cpu.numSquashedInsts                     28660                       # Number of squashed instructions skipped in execute (Count)
system.cpu.numSwp                                   0                       # Number of swp insts executed (Count)
system.cpu.numNop                                   0                       # Number of nop insts executed (Count)
system.cpu.numRefs                            1260400                       # Number of memory reference insts executed (Count)
system.cpu.numBranches                         566175                       # Number of branches executed (Count)
system.cpu.numStoreInsts                       493169                       # Number of stores executed (Count)
system.cpu.numRate                           2.391861                       # Inst execution rate ((Count/Cycle))
system.cpu.timesIdled                           11281                       # Number of times that the entire CPU went into an idle state and unscheduled itself (Count)
system.cpu.idleCycles                          129161                       # Total number of cycles that the CPU has spent unscheduled due to idling (Cycle)
system.cpu.committedInsts                     2849860                       # Number of Instructions Simulated (Count)
system.cpu.committedOps                       5296197                       # Number of Ops (including micro ops) Simulated (Count)
system.cpu.cpi                               0.814737                       # CPI: Cycles Per Instruction ((Cycle/Count))
system.cpu.totalCpi                          0.814737                       # CPI: Total CPI of All Threads ((Cycle/Count))
system.cpu.ipc                               1.227390                       # IPC: Instructions Per Cycle ((Count/Cycle))
system.cpu.totalIpc                          1.227390                       # IPC: Total IPC of All Threads ((Count/Cycle))
system.cpu.intRegfileReads                    7123746                       # Number of integer regfile reads (Count)
system.cpu.intRegfileWrites                   3994757                       # Number of integer regfile writes (Count)
system.cpu.fpRegfileReads                      199200                       # Number of floating regfile reads (Count)
system.cpu.fpRegfileWrites                     120388                       # Number of floating regfile writes (Count)
system.cpu.ccRegfileReads                     2859304                       # number of cc regfile reads (Count)
system.cpu.ccRegfileWrites                    1772998                       # number of cc regfile writes (Count)
system.cpu.miscRegfileReads                   2375631                       # number of misc regfile reads (Count)
system.cpu.miscRegfileWrites                       18                       # number of misc regfile writes (Count)
system.cpu.MemDepUnit__0.insertedLoads         779039                       # Number of loads inserted to the mem dependence unit. (Count)
system.cpu.MemDepUnit__0.insertedStores        509842                       # Number of stores inserted to the mem dependence unit. (Count)
system.cpu.MemDepUnit__0.conflictingLoads        98051                       # Number of conflicting loads. (Count)
system.cpu.MemDepUnit__0.conflictingStores        41650                       # Number of conflicting stores. (Count)
system.cpu.MemDepUnit__1.insertedLoads              0                       # Number of loads inserted to the mem dependence unit. (Count)
system.cpu.MemDepUnit__1.insertedStores             0                       # Number of stores inserted to the mem dependence unit. (Count)
system.cpu.MemDepUnit__1.conflictingLoads            0                       # Number of conflicting loads. (Count)
system.cpu.MemDepUnit__1.conflictingStores            0                       # Number of conflicting stores. (Count)
system.cpu.MemDepUnit__2.insertedLoads              0                       # Number of loads inserted to the mem dependence unit. (Count)
system.cpu.MemDepUnit__2.insertedStores             0                       # Number of stores inserted to the mem dependence unit. (Count)
system.cpu.MemDepUnit__2.conflictingLoads            0                       # Number of conflicting loads. (Count)
system.cpu.MemDepUnit__2.conflictingStores            0                       # Number of conflicting stores. (Count)
system.cpu.MemDepUnit__3.insertedLoads              0                       # Number of loads inserted to the mem dependence unit. (Count)
system.cpu.MemDepUnit__3.insertedStores             0                       # Number of stores inserted to the mem dependence unit. (Count)
system.cpu.MemDepUnit__3.conflictingLoads            0                       # Number of conflicting loads. (Count)
system.cpu.MemDepUnit__3.conflictingStores            0                       # Number of conflicting stores. (Count)
system.cpu.branchPred.lookups                  613338                       # Number of BP lookups (Count)
system.cpu.branchPred.condPredicted            451863                       # Number of conditional branches predicted (Count)
system.cpu.branchPred.condIncorrect              8970                       # Number of conditional branches incorrect (Count)
system.cpu.branchPred.BTBLookups               302525                       # Number of BTB lookups (Count)
system.cpu.branchPred.BTBUpdates                 6810                       # Number of BTB updates (Count)
system.cpu.branchPred.BTBHits                  300169                       # Number of BTB hits (Count)
system.cpu.branchPred.BTBHitRatio            0.992212                       # BTB Hit Ratio (Ratio)
system.cpu.branchPred.RASUsed                   48247                       # Number of times the RAS was used to get a target. (Count)
system.cpu.branchPred.RASIncorrect                  1                       # Number of incorrect RAS predictions. (Count)
system.cpu.branchPred.indirectLookups           17252                       # Number of indirect predictor lookups. (Count)
system.cpu.branchPred.indirectHits              16123                       # Number of indirect target hits. (Count)
system.cpu.branchPred.indirectMisses             1129                       # Number of indirect misses. (Count)
system.cpu.branchPred.indirectMispredicted          322                       # Number of mispredicted indirect branches. (Count)
system.cpu.commit.commitSquashedInsts          395864                       # The number of squashed insts skipped by commit (Count)
system.cpu.commit.commitNonSpecStalls            6072                       # The number of times commit has been forced to stall to communicate backwards (Count)
system.cpu.commit.branchMispredicts              8020                       # The number of times a branch was mispredicted (Count)
system.cpu.commit.numCommittedDist::samples      2135993                       # Number of insts commited each cycle (Count)
system.cpu.commit.numCommittedDist::mean     2.479501                       # Number of insts commited each cycle (Count)
system.cpu.commit.numCommittedDist::stdev     2.927553                       # Number of insts commited each cycle (Count)
system.cpu.commit.numCommittedDist::underflows            0      0.00%      0.00% # Number of insts commited each cycle (Count)
system.cpu.commit.numCommittedDist::0          865459     40.52%     40.52% # Number of insts commited each cycle (Count)
system.cpu.commit.numCommittedDist::1          241740     11.32%     51.84% # Number of insts commited each cycle (Count)
system.cpu.commit.numCommittedDist::2          211890      9.92%     61.76% # Number of insts commited each cycle (Count)
system.cpu.commit.numCommittedDist::3          278799     13.05%     74.81% # Number of insts commited each cycle (Count)
system.cpu.commit.numCommittedDist::4           51495      2.41%     77.22% # Number of insts commited each cycle (Count)
system.cpu.commit.numCommittedDist::5           61423      2.88%     80.09% # Number of insts commited each cycle (Count)
system.cpu.commit.numCommittedDist::6           36651      1.72%     81.81% # Number of insts commited each cycle (Count)
system.cpu.commit.numCommittedDist::7           47009      2.20%     84.01% # Number of insts commited each cycle (Count)
system.cpu.commit.numCommittedDist::8          341527     15.99%    100.00% # Number of insts commited each cycle (Count)
system.cpu.commit.numCommittedDist::overflows            0      0.00%    100.00% # Number of insts commited each cycle (Count)
system.cpu.commit.numCommittedDist::min_value            0                       # Number of insts commited each cycle (Count)
system.cpu.commit.numCommittedDist::max_value            8                       # Number of insts commited each cycle (Count)
system.cpu.commit.numCommittedDist::total      2135993                       # Number of insts commited each cycle (Count)
system.cpu.commit.instsCommitted              2849860                       # Number of instructions committed (Count)
system.cpu.commit.opsCommitted                5296197                       # Number of ops (including micro ops) committed (Count)
system.cpu.commit.memRefs                     1192055                       # Number of memory references committed (Count)
system.cpu.commit.loads                        727037                       # Number of loads committed (Count)
system.cpu.commit.amos                              0                       # Number of atomic instructions committed (Count)
system.cpu.commit.membars                        4036                       # Number of memory barriers committed (Count)
system.cpu.commit.branches                     550997                       # Number of branches committed (Count)
system.cpu.commit.vectorInstructions                0                       # Number of committed Vector instructions. (Count)
system.cpu.commit.floating                     157100                       # Number of committed floating point instructions. (Count)
system.cpu.commit.integer                     5135108                       # Number of committed integer instructions. (Count)
system.cpu.commit.functionCalls                 45597                       # Number of function calls committed. (Count)
system.cpu.commit.committedInstType_0::No_OpClass        58512      1.10%      1.10% # Class of committed instruction (Count)
system.cpu.commit.committedInstType_0::IntAlu      3930290     74.21%     75.31% # Class of committed instruction (Count)
system.cpu.commit.committedInstType_0::IntMult         3677      0.07%     75.38% # Class of committed instruction (Count)
system.cpu.commit.committedInstType_0::IntDiv        19071      0.36%     75.74% # Class of committed instruction (Count)
system.cpu.commit.committedInstType_0::FloatAdd        23493      0.44%     76.19% # Class of committed instruction (Count)
system.cpu.commit.committedInstType_0::FloatCmp            0      0.00%     76.19% # Class of committed instruction (Count)
system.cpu.commit.committedInstType_0::FloatCvt           32      0.00%     76.19% # Class of committed instruction (Count)
system.cpu.commit.committedInstType_0::FloatMult            0      0.00%     76.19% # Class of committed instruction (Count)
system.cpu.commit.committedInstType_0::FloatMultAcc            0      0.00%     76.19% # Class of committed instruction (Count)
system.cpu.commit.committedInstType_0::FloatDiv            0      0.00%     76.19% # Class of committed instruction (Count)
system.cpu.commit.committedInstType_0::FloatMisc            0      0.00%     76.19% # Class of committed instruction (Count)
system.cpu.commit.committedInstType_0::FloatSqrt            0      0.00%     76.19% # Class of committed instruction (Count)
system.cpu.commit.committedInstType_0::SimdAdd          340      0.01%     76.19% # Class of committed instruction (Count)
system.cpu.commit.committedInstType_0::SimdAddAcc            0      0.00%     76.19% # Class of committed instruction (Count)
system.cpu.commit.committedInstType_0::SimdAlu        20785      0.39%     76.59% # Class of committed instruction (Count)
system.cpu.commit.committedInstType_0::SimdCmp            0      0.00%     76.59% # Class of committed instruction (Count)
system.cpu.commit.committedInstType_0::SimdCvt        10796      0.20%     76.79% # Class of committed instruction (Count)
system.cpu.commit.committedInstType_0::SimdMisc        24936      0.47%     77.26% # Class of committed instruction (Count)
system.cpu.commit.committedInstType_0::SimdMult            0      0.00%     77.26% # Class of committed instruction (Count)
system.cpu.commit.committedInstType_0::SimdMultAcc            0      0.00%     77.26% # Class of committed instruction (Count)
system.cpu.commit.committedInstType_0::SimdShift          178      0.00%     77.27% # Class of committed instruction (Count)
system.cpu.commit.committedInstType_0::SimdShiftAcc            0      0.00%     77.27% # Class of committed instruction (Count)
system.cpu.commit.committedInstType_0::SimdDiv            0      0.00%     77.27% # Class of committed instruction (Count)
system.cpu.commit.committedInstType_0::SimdSqrt            0      0.00%     77.27% # Class of committed instruction (Count)
system.cpu.commit.committedInstType_0::SimdFloatAdd            0      0.00%     77.27% # Class of committed instruction (Count)
system.cpu.commit.committedInstType_0::SimdFloatAlu            0      0.00%     77.27% # Class of committed instruction (Count)
system.cpu.commit.committedInstType_0::SimdFloatCmp            0      0.00%     77.27% # Class of committed instruction (Count)
system.cpu.commit.committedInstType_0::SimdFloatCvt        12032      0.23%     77.49% # Class of committed instruction (Count)
system.cpu.commit.committedInstType_0::SimdFloatDiv            0      0.00%     77.49% # Class of committed instruction (Count)
system.cpu.commit.committedInstType_0::SimdFloatMisc            0      0.00%     77.49% # Class of committed instruction (Count)
system.cpu.commit.committedInstType_0::SimdFloatMult            0      0.00%     77.49% # Class of committed instruction (Count)
system.cpu.commit.committedInstType_0::SimdFloatMultAcc            0      0.00%     77.49% # Class of committed instruction (Count)
system.cpu.commit.committedInstType_0::SimdFloatSqrt            0      0.00%     77.49% # Class of committed instruction (Count)
system.cpu.commit.committedInstType_0::SimdReduceAdd            0      0.00%     77.49% # Class of committed instruction (Count)
system.cpu.commit.committedInstType_0::SimdReduceAlu            0      0.00%     77.49% # Class of committed instruction (Count)
system.cpu.commit.committedInstType_0::SimdReduceCmp            0      0.00%     77.49% # Class of committed instruction (Count)
system.cpu.commit.committedInstType_0::SimdFloatReduceAdd            0      0.00%     77.49% # Class of committed instruction (Count)
system.cpu.commit.committedInstType_0::SimdFloatReduceCmp            0      0.00%     77.49% # Class of committed instruction (Count)
system.cpu.commit.committedInstType_0::SimdAes            0      0.00%     77.49% # Class of committed instruction (Count)
system.cpu.commit.committedInstType_0::SimdAesMix            0      0.00%     77.49% # Class of committed instruction (Count)
system.cpu.commit.committedInstType_0::SimdSha1Hash            0      0.00%     77.49% # Class of committed instruction (Count)
system.cpu.commit.committedInstType_0::SimdSha1Hash2            0      0.00%     77.49% # Class of committed instruction (Count)
system.cpu.commit.committedInstType_0::SimdSha256Hash            0      0.00%     77.49% # Class of committed instruction (Count)
system.cpu.commit.committedInstType_0::SimdSha256Hash2            0      0.00%     77.49% # Class of committed instruction (Count)
system.cpu.commit.committedInstType_0::SimdShaSigma2            0      0.00%     77.49% # Class of committed instruction (Count)
system.cpu.commit.committedInstType_0::SimdShaSigma3            0      0.00%     77.49% # Class of committed instruction (Count)
system.cpu.commit.committedInstType_0::SimdPredAlu            0      0.00%     77.49% # Class of committed instruction (Count)
system.cpu.commit.committedInstType_0::MemRead       694020     13.10%     90.60% # Class of committed instruction (Count)
system.cpu.commit.committedInstType_0::MemWrite       441864      8.34%     98.94% # Class of committed instruction (Count)
system.cpu.commit.committedInstType_0::FloatMemRead        33017      0.62%     99.56% # Class of committed instruction (Count)
system.cpu.commit.committedInstType_0::FloatMemWrite        23154      0.44%    100.00% # Class of committed instruction (Count)
system.cpu.commit.committedInstType_0::IprAccess            0      0.00%    100.00% # Class of committed instruction (Count)
system.cpu.commit.committedInstType_0::InstPrefetch            0      0.00%    100.00% # Class of committed instruction (Count)
system.cpu.commit.committedInstType_0::total      5296197                       # Class of committed instruction (Count)
system.cpu.commit.commitEligibleSamples        341527                       # number cycles where commit BW limit reached (Cycle)
system.cpu.dcache.demandHits::cpu.data        1068882                       # number of demand (read+write) hits (Count)
system.cpu.dcache.demandHits::total           1068882                       # number of demand (read+write) hits (Count)
system.cpu.dcache.overallHits::cpu.data       1068882                       # number of overall hits (Count)
system.cpu.dcache.overallHits::total          1068882                       # number of overall hits (Count)
system.cpu.dcache.demandMisses::cpu.data         7365                       # number of demand (read+write) misses (Count)
system.cpu.dcache.demandMisses::total            7365                       # number of demand (read+write) misses (Count)
system.cpu.dcache.overallMisses::cpu.data         7365                       # number of overall misses (Count)
system.cpu.dcache.overallMisses::total           7365                       # number of overall misses (Count)
system.cpu.dcache.demandMissLatency::cpu.data    441515000                       # number of demand (read+write) miss ticks (Tick)
system.cpu.dcache.demandMissLatency::total    441515000                       # number of demand (read+write) miss ticks (Tick)
system.cpu.dcache.overallMissLatency::cpu.data    441515000                       # number of overall miss ticks (Tick)
system.cpu.dcache.overallMissLatency::total    441515000                       # number of overall miss ticks (Tick)
system.cpu.dcache.demandAccesses::cpu.data      1076247                       # number of demand (read+write) accesses (Count)
system.cpu.dcache.demandAccesses::total       1076247                       # number of demand (read+write) accesses (Count)
system.cpu.dcache.overallAccesses::cpu.data      1076247                       # number of overall (read+write) accesses (Count)
system.cpu.dcache.overallAccesses::total      1076247                       # number of overall (read+write) accesses (Count)
system.cpu.dcache.demandMissRate::cpu.data     0.006843                       # miss rate for demand accesses (Ratio)
system.cpu.dcache.demandMissRate::total      0.006843                       # miss rate for demand accesses (Ratio)
system.cpu.dcache.overallMissRate::cpu.data     0.006843                       # miss rate for overall accesses (Ratio)
system.cpu.dcache.overallMissRate::total     0.006843                       # miss rate for overall accesses (Ratio)
system.cpu.dcache.demandAvgMissLatency::cpu.data 59947.725730                       # average overall miss latency in ticks ((Tick/Count))
system.cpu.dcache.demandAvgMissLatency::total 59947.725730                       # average overall miss latency in ticks ((Tick/Count))
system.cpu.dcache.overallAvgMissLatency::cpu.data 59947.725730                       # average overall miss latency ((Tick/Count))
system.cpu.dcache.overallAvgMissLatency::total 59947.725730                       # average overall miss latency ((Tick/Count))
system.cpu.dcache.blockedCycles::no_mshrs        17045                       # number of cycles access was blocked (Cycle)
system.cpu.dcache.blockedCycles::no_targets            0                       # number of cycles access was blocked (Cycle)
system.cpu.dcache.blockedCauses::no_mshrs          405                       # number of times access was blocked (Count)
system.cpu.dcache.blockedCauses::no_targets            0                       # number of times access was blocked (Count)
system.cpu.dcache.avgBlocked::no_mshrs      42.086420                       # average number of cycles each access was blocked ((Cycle/Count))
system.cpu.dcache.avgBlocked::no_targets          nan                       # average number of cycles each access was blocked ((Cycle/Count))
system.cpu.dcache.writebacks::writebacks          442                       # number of writebacks (Count)
system.cpu.dcache.writebacks::total               442                       # number of writebacks (Count)
system.cpu.dcache.demandMshrHits::cpu.data         5096                       # number of demand (read+write) MSHR hits (Count)
system.cpu.dcache.demandMshrHits::total          5096                       # number of demand (read+write) MSHR hits (Count)
system.cpu.dcache.overallMshrHits::cpu.data         5096                       # number of overall MSHR hits (Count)
system.cpu.dcache.overallMshrHits::total         5096                       # number of overall MSHR hits (Count)
system.cpu.dcache.demandMshrMisses::cpu.data         2269                       # number of demand (read+write) MSHR misses (Count)
system.cpu.dcache.demandMshrMisses::total         2269                       # number of demand (read+write) MSHR misses (Count)
system.cpu.dcache.overallMshrMisses::cpu.data         2269                       # number of overall MSHR misses (Count)
system.cpu.dcache.overallMshrMisses::total         2269                       # number of overall MSHR misses (Count)
system.cpu.dcache.demandMshrMissLatency::cpu.data    157451000                       # number of demand (read+write) MSHR miss ticks (Tick)
system.cpu.dcache.demandMshrMissLatency::total    157451000                       # number of demand (read+write) MSHR miss ticks (Tick)
system.cpu.dcache.overallMshrMissLatency::cpu.data    157451000                       # number of overall MSHR miss ticks (Tick)
system.cpu.dcache.overallMshrMissLatency::total    157451000                       # number of overall MSHR miss ticks (Tick)
system.cpu.dcache.demandMshrMissRate::cpu.data     0.002108                       # mshr miss ratio for demand accesses (Ratio)
system.cpu.dcache.demandMshrMissRate::total     0.002108                       # mshr miss ratio for demand accesses (Ratio)
system.cpu.dcache.overallMshrMissRate::cpu.data     0.002108                       # mshr miss ratio for overall accesses (Ratio)
system.cpu.dcache.overallMshrMissRate::total     0.002108                       # mshr miss ratio for overall accesses (Ratio)
system.cpu.dcache.demandAvgMshrMissLatency::cpu.data 69392.243279                       # average overall mshr miss latency ((Tick/Count))
system.cpu.dcache.demandAvgMshrMissLatency::total 69392.243279                       # average overall mshr miss latency ((Tick/Count))
system.cpu.dcache.overallAvgMshrMissLatency::cpu.data 69392.243279                       # average overall mshr miss latency ((Tick/Count))
system.cpu.dcache.overallAvgMshrMissLatency::total 69392.243279                       # average overall mshr miss latency ((Tick/Count))
system.cpu.dcache.replacements                   1248                       # number of replacements (Count)
system.cpu.dcache.LockedRMWReadReq.hits::cpu.data         2016                       # number of LockedRMWReadReq hits (Count)
system.cpu.dcache.LockedRMWReadReq.hits::total         2016                       # number of LockedRMWReadReq hits (Count)
system.cpu.dcache.LockedRMWReadReq.misses::cpu.data            2                       # number of LockedRMWReadReq misses (Count)
system.cpu.dcache.LockedRMWReadReq.misses::total            2                       # number of LockedRMWReadReq misses (Count)
system.cpu.dcache.LockedRMWReadReq.missLatency::cpu.data       107500                       # number of LockedRMWReadReq miss ticks (Tick)
system.cpu.dcache.LockedRMWReadReq.missLatency::total       107500                       # number of LockedRMWReadReq miss ticks (Tick)
system.cpu.dcache.LockedRMWReadReq.accesses::cpu.data         2018                       # number of LockedRMWReadReq accesses(hits+misses) (Count)
system.cpu.dcache.LockedRMWReadReq.accesses::total         2018                       # number of LockedRMWReadReq accesses(hits+misses) (Count)
system.cpu.dcache.LockedRMWReadReq.missRate::cpu.data     0.000991                       # miss rate for LockedRMWReadReq accesses (Ratio)
system.cpu.dcache.LockedRMWReadReq.missRate::total     0.000991                       # miss rate for LockedRMWReadReq accesses (Ratio)
system.cpu.dcache.LockedRMWReadReq.avgMissLatency::cpu.data        53750                       # average LockedRMWReadReq miss latency ((Tick/Count))
system.cpu.dcache.LockedRMWReadReq.avgMissLatency::total        53750                       # average LockedRMWReadReq miss latency ((Tick/Count))
system.cpu.dcache.LockedRMWReadReq.mshrMisses::cpu.data            2                       # number of LockedRMWReadReq MSHR misses (Count)
system.cpu.dcache.LockedRMWReadReq.mshrMisses::total            2                       # number of LockedRMWReadReq MSHR misses (Count)
system.cpu.dcache.LockedRMWReadReq.mshrMissLatency::cpu.data      7782000                       # number of LockedRMWReadReq MSHR miss ticks (Tick)
system.cpu.dcache.LockedRMWReadReq.mshrMissLatency::total      7782000                       # number of LockedRMWReadReq MSHR miss ticks (Tick)
system.cpu.dcache.LockedRMWReadReq.mshrMissRate::cpu.data     0.000991                       # mshr miss rate for LockedRMWReadReq accesses (Ratio)
system.cpu.dcache.LockedRMWReadReq.mshrMissRate::total     0.000991                       # mshr miss rate for LockedRMWReadReq accesses (Ratio)
system.cpu.dcache.LockedRMWReadReq.avgMshrMissLatency::cpu.data      3891000                       # average LockedRMWReadReq mshr miss latency ((Tick/Count))
system.cpu.dcache.LockedRMWReadReq.avgMshrMissLatency::total      3891000                       # average LockedRMWReadReq mshr miss latency ((Tick/Count))
system.cpu.dcache.LockedRMWWriteReq.hits::cpu.data         2018                       # number of LockedRMWWriteReq hits (Count)
system.cpu.dcache.LockedRMWWriteReq.hits::total         2018                       # number of LockedRMWWriteReq hits (Count)
system.cpu.dcache.LockedRMWWriteReq.accesses::cpu.data         2018                       # number of LockedRMWWriteReq accesses(hits+misses) (Count)
system.cpu.dcache.LockedRMWWriteReq.accesses::total         2018                       # number of LockedRMWWriteReq accesses(hits+misses) (Count)
system.cpu.dcache.ReadReq.hits::cpu.data       606730                       # number of ReadReq hits (Count)
system.cpu.dcache.ReadReq.hits::total          606730                       # number of ReadReq hits (Count)
system.cpu.dcache.ReadReq.misses::cpu.data         6516                       # number of ReadReq misses (Count)
system.cpu.dcache.ReadReq.misses::total          6516                       # number of ReadReq misses (Count)
system.cpu.dcache.ReadReq.missLatency::cpu.data    380783000                       # number of ReadReq miss ticks (Tick)
system.cpu.dcache.ReadReq.missLatency::total    380783000                       # number of ReadReq miss ticks (Tick)
system.cpu.dcache.ReadReq.accesses::cpu.data       613246                       # number of ReadReq accesses(hits+misses) (Count)
system.cpu.dcache.ReadReq.accesses::total       613246                       # number of ReadReq accesses(hits+misses) (Count)
system.cpu.dcache.ReadReq.missRate::cpu.data     0.010625                       # miss rate for ReadReq accesses (Ratio)
system.cpu.dcache.ReadReq.missRate::total     0.010625                       # miss rate for ReadReq accesses (Ratio)
system.cpu.dcache.ReadReq.avgMissLatency::cpu.data 58438.152241                       # average ReadReq miss latency ((Tick/Count))
system.cpu.dcache.ReadReq.avgMissLatency::total 58438.152241                       # average ReadReq miss latency ((Tick/Count))
system.cpu.dcache.ReadReq.mshrHits::cpu.data         5092                       # number of ReadReq MSHR hits (Count)
system.cpu.dcache.ReadReq.mshrHits::total         5092                       # number of ReadReq MSHR hits (Count)
system.cpu.dcache.ReadReq.mshrMisses::cpu.data         1424                       # number of ReadReq MSHR misses (Count)
system.cpu.dcache.ReadReq.mshrMisses::total         1424                       # number of ReadReq MSHR misses (Count)
system.cpu.dcache.ReadReq.mshrMissLatency::cpu.data     97881500                       # number of ReadReq MSHR miss ticks (Tick)
system.cpu.dcache.ReadReq.mshrMissLatency::total     97881500                       # number of ReadReq MSHR miss ticks (Tick)
system.cpu.dcache.ReadReq.mshrMissRate::cpu.data     0.002322                       # mshr miss rate for ReadReq accesses (Ratio)
system.cpu.dcache.ReadReq.mshrMissRate::total     0.002322                       # mshr miss rate for ReadReq accesses (Ratio)
system.cpu.dcache.ReadReq.avgMshrMissLatency::cpu.data 68737.008427                       # average ReadReq mshr miss latency ((Tick/Count))
system.cpu.dcache.ReadReq.avgMshrMissLatency::total 68737.008427                       # average ReadReq mshr miss latency ((Tick/Count))
system.cpu.dcache.WriteReq.hits::cpu.data       462152                       # number of WriteReq hits (Count)
system.cpu.dcache.WriteReq.hits::total         462152                       # number of WriteReq hits (Count)
system.cpu.dcache.WriteReq.misses::cpu.data          849                       # number of WriteReq misses (Count)
system.cpu.dcache.WriteReq.misses::total          849                       # number of WriteReq misses (Count)
system.cpu.dcache.WriteReq.missLatency::cpu.data     60732000                       # number of WriteReq miss ticks (Tick)
system.cpu.dcache.WriteReq.missLatency::total     60732000                       # number of WriteReq miss ticks (Tick)
system.cpu.dcache.WriteReq.accesses::cpu.data       463001                       # number of WriteReq accesses(hits+misses) (Count)
system.cpu.dcache.WriteReq.accesses::total       463001                       # number of WriteReq accesses(hits+misses) (Count)
system.cpu.dcache.WriteReq.missRate::cpu.data     0.001834                       # miss rate for WriteReq accesses (Ratio)
system.cpu.dcache.WriteReq.missRate::total     0.001834                       # miss rate for WriteReq accesses (Ratio)
system.cpu.dcache.WriteReq.avgMissLatency::cpu.data 71533.568905                       # average WriteReq miss latency ((Tick/Count))
system.cpu.dcache.WriteReq.avgMissLatency::total 71533.568905                       # average WriteReq miss latency ((Tick/Count))
system.cpu.dcache.WriteReq.mshrHits::cpu.data            4                       # number of WriteReq MSHR hits (Count)
system.cpu.dcache.WriteReq.mshrHits::total            4                       # number of WriteReq MSHR hits (Count)
system.cpu.dcache.WriteReq.mshrMisses::cpu.data          845                       # number of WriteReq MSHR misses (Count)
system.cpu.dcache.WriteReq.mshrMisses::total          845                       # number of WriteReq MSHR misses (Count)
system.cpu.dcache.WriteReq.mshrMissLatency::cpu.data     59569500                       # number of WriteReq MSHR miss ticks (Tick)
system.cpu.dcache.WriteReq.mshrMissLatency::total     59569500                       # number of WriteReq MSHR miss ticks (Tick)
system.cpu.dcache.WriteReq.mshrMissRate::cpu.data     0.001825                       # mshr miss rate for WriteReq accesses (Ratio)
system.cpu.dcache.WriteReq.mshrMissRate::total     0.001825                       # mshr miss rate for WriteReq accesses (Ratio)
system.cpu.dcache.WriteReq.avgMshrMissLatency::cpu.data 70496.449704                       # average WriteReq mshr miss latency ((Tick/Count))
system.cpu.dcache.WriteReq.avgMshrMissLatency::total 70496.449704                       # average WriteReq mshr miss latency ((Tick/Count))
system.cpu.dcache.power_state.pwrStateResidencyTicks::UNDEFINED   1160943000                       # Cumulative time (in ticks) in various power states (Tick)
system.cpu.dcache.tags.tagsInUse           979.400310                       # Average ticks per tags in use ((Tick/Count))
system.cpu.dcache.tags.totalRefs              1075187                       # Total number of references to valid blocks. (Count)
system.cpu.dcache.tags.sampledRefs               2271                       # Sample count of references to valid blocks. (Count)
system.cpu.dcache.tags.avgRefs             473.442096                       # Average number of references to valid blocks. ((Count/Count))
system.cpu.dcache.tags.warmupTick              168000                       # The tick when the warmup percentage was hit. (Tick)
system.cpu.dcache.tags.occupancies::cpu.data   979.400310                       # Average occupied blocks per tick, per requestor ((Count/Tick))
system.cpu.dcache.tags.avgOccs::cpu.data     0.956446                       # Average percentage of cache occupancy ((Ratio/Tick))
system.cpu.dcache.tags.avgOccs::total        0.956446                       # Average percentage of cache occupancy ((Ratio/Tick))
system.cpu.dcache.tags.occupanciesTaskId::1024         1023                       # Occupied blocks per task id (Count)
system.cpu.dcache.tags.ageTaskId_1024::0           21                       # Occupied blocks per task id, per block age (Count)
system.cpu.dcache.tags.ageTaskId_1024::2          239                       # Occupied blocks per task id, per block age (Count)
system.cpu.dcache.tags.ageTaskId_1024::3          763                       # Occupied blocks per task id, per block age (Count)
system.cpu.dcache.tags.ratioOccsTaskId::1024     0.999023                       # Ratio of occupied blocks and all blocks, per task id (Ratio)
system.cpu.dcache.tags.tagAccesses            4323403                       # Number of tag accesses (Count)
system.cpu.dcache.tags.dataAccesses           4323403                       # Number of data accesses (Count)
system.cpu.dcache.tags.power_state.pwrStateResidencyTicks::UNDEFINED   1160943000                       # Cumulative time (in ticks) in various power states (Tick)
system.cpu.decode.idleCycles                   934583                       # Number of cycles decode is idle (Cycle)
system.cpu.decode.blockedCycles                306039                       # Number of cycles decode is blocked (Cycle)
system.cpu.decode.runCycles                    889115                       # Number of cycles decode is running (Cycle)
system.cpu.decode.unblockCycles                 51684                       # Number of cycles decode is unblocking (Cycle)
system.cpu.decode.squashCycles                  11305                       # Number of cycles decode is squashing (Cycle)
system.cpu.decode.branchResolved               298080                       # Number of times decode resolved a branch (Count)
system.cpu.decode.branchMispred                  1225                       # Number of times decode detected a branch misprediction (Count)
system.cpu.decode.decodedInsts                5820386                       # Number of instructions handled by decode (Count)
system.cpu.decode.squashedInsts                  7143                       # Number of squashed instructions handled by decode (Count)
system.cpu.fetch.icacheStallCycles             981823                       # Number of cycles fetch is stalled on an Icache miss (Cycle)
system.cpu.fetch.insts                        3213438                       # Number of instructions fetch has processed (Count)
system.cpu.fetch.branches                      613338                       # Number of branches that fetch encountered (Count)
system.cpu.fetch.predictedBranches             364539                       # Number of branches that fetch has predicted taken (Count)
system.cpu.fetch.cycles                       1195596                       # Number of cycles fetch has run and was not squashing or blocked (Cycle)
system.cpu.fetch.squashCycles                   25036                       # Number of cycles fetch has spent squashing (Cycle)
system.cpu.fetch.miscStallCycles                  296                       # Number of cycles fetch has spent waiting on interrupts, or bad addresses, or out of MSHRs (Cycle)
system.cpu.fetch.pendingTrapStallCycles          2493                       # Number of stall cycles due to pending traps (Cycle)
system.cpu.fetch.cacheLines                    421072                       # Number of cache lines fetched (Count)
system.cpu.fetch.icacheSquashes                  3413                       # Number of outstanding Icache misses that were squashed (Count)
system.cpu.fetch.nisnDist::samples            2192726                       # Number of instructions fetched each cycle (Total) (Count)
system.cpu.fetch.nisnDist::mean              2.708361                       # Number of instructions fetched each cycle (Total) (Count)
system.cpu.fetch.nisnDist::stdev             3.422743                       # Number of instructions fetched each cycle (Total) (Count)
system.cpu.fetch.nisnDist::underflows               0      0.00%      0.00% # Number of instructions fetched each cycle (Total) (Count)
system.cpu.fetch.nisnDist::0                  1203952     54.91%     54.91% # Number of instructions fetched each cycle (Total) (Count)
system.cpu.fetch.nisnDist::1                    81932      3.74%     58.64% # Number of instructions fetched each cycle (Total) (Count)
system.cpu.fetch.nisnDist::2                    70096      3.20%     61.84% # Number of instructions fetched each cycle (Total) (Count)
system.cpu.fetch.nisnDist::3                    52521      2.40%     64.24% # Number of instructions fetched each cycle (Total) (Count)
system.cpu.fetch.nisnDist::4                    67792      3.09%     67.33% # Number of instructions fetched each cycle (Total) (Count)
system.cpu.fetch.nisnDist::5                    86519      3.95%     71.27% # Number of instructions fetched each cycle (Total) (Count)
system.cpu.fetch.nisnDist::6                    68080      3.10%     74.38% # Number of instructions fetched each cycle (Total) (Count)
system.cpu.fetch.nisnDist::7                    47909      2.18%     76.56% # Number of instructions fetched each cycle (Total) (Count)
system.cpu.fetch.nisnDist::8                   513925     23.44%    100.00% # Number of instructions fetched each cycle (Total) (Count)
system.cpu.fetch.nisnDist::overflows                0      0.00%    100.00% # Number of instructions fetched each cycle (Total) (Count)
system.cpu.fetch.nisnDist::min_value                0                       # Number of instructions fetched each cycle (Total) (Count)
system.cpu.fetch.nisnDist::max_value                8                       # Number of instructions fetched each cycle (Total) (Count)
system.cpu.fetch.nisnDist::total              2192726                       # Number of instructions fetched each cycle (Total) (Count)
system.cpu.fetch.branchRate                  0.264155                       # Number of branch fetches per cycle (Ratio)
system.cpu.fetch.rate                        1.383977                       # Number of inst fetches per cycle ((Count/Cycle))
system.cpu.icache.demandHits::cpu.inst         395730                       # number of demand (read+write) hits (Count)
system.cpu.icache.demandHits::total            395730                       # number of demand (read+write) hits (Count)
system.cpu.icache.overallHits::cpu.inst        395730                       # number of overall hits (Count)
system.cpu.icache.overallHits::total           395730                       # number of overall hits (Count)
system.cpu.icache.demandMisses::cpu.inst        25342                       # number of demand (read+write) misses (Count)
system.cpu.icache.demandMisses::total           25342                       # number of demand (read+write) misses (Count)
system.cpu.icache.overallMisses::cpu.inst        25342                       # number of overall misses (Count)
system.cpu.icache.overallMisses::total          25342                       # number of overall misses (Count)
system.cpu.icache.demandMissLatency::cpu.inst    442567500                       # number of demand (read+write) miss ticks (Tick)
system.cpu.icache.demandMissLatency::total    442567500                       # number of demand (read+write) miss ticks (Tick)
system.cpu.icache.overallMissLatency::cpu.inst    442567500                       # number of overall miss ticks (Tick)
system.cpu.icache.overallMissLatency::total    442567500                       # number of overall miss ticks (Tick)
system.cpu.icache.demandAccesses::cpu.inst       421072                       # number of demand (read+write) accesses (Count)
system.cpu.icache.demandAccesses::total        421072                       # number of demand (read+write) accesses (Count)
system.cpu.icache.overallAccesses::cpu.inst       421072                       # number of overall (read+write) accesses (Count)
system.cpu.icache.overallAccesses::total       421072                       # number of overall (read+write) accesses (Count)
system.cpu.icache.demandMissRate::cpu.inst     0.060184                       # miss rate for demand accesses (Ratio)
system.cpu.icache.demandMissRate::total      0.060184                       # miss rate for demand accesses (Ratio)
system.cpu.icache.overallMissRate::cpu.inst     0.060184                       # miss rate for overall accesses (Ratio)
system.cpu.icache.overallMissRate::total     0.060184                       # miss rate for overall accesses (Ratio)
system.cpu.icache.demandAvgMissLatency::cpu.inst 17463.795281                       # average overall miss latency in ticks ((Tick/Count))
system.cpu.icache.demandAvgMissLatency::total 17463.795281                       # average overall miss latency in ticks ((Tick/Count))
system.cpu.icache.overallAvgMissLatency::cpu.inst 17463.795281                       # average overall miss latency ((Tick/Count))
system.cpu.icache.overallAvgMissLatency::total 17463.795281                       # average overall miss latency ((Tick/Count))
system.cpu.icache.blockedCycles::no_mshrs          225                       # number of cycles access was blocked (Cycle)
system.cpu.icache.blockedCycles::no_targets            0                       # number of cycles access was blocked (Cycle)
system.cpu.icache.blockedCauses::no_mshrs            3                       # number of times access was blocked (Count)
system.cpu.icache.blockedCauses::no_targets            0                       # number of times access was blocked (Count)
system.cpu.icache.avgBlocked::no_mshrs             75                       # average number of cycles each access was blocked ((Cycle/Count))
system.cpu.icache.avgBlocked::no_targets          nan                       # average number of cycles each access was blocked ((Cycle/Count))
system.cpu.icache.demandMshrHits::cpu.inst          579                       # number of demand (read+write) MSHR hits (Count)
system.cpu.icache.demandMshrHits::total           579                       # number of demand (read+write) MSHR hits (Count)
system.cpu.icache.overallMshrHits::cpu.inst          579                       # number of overall MSHR hits (Count)
system.cpu.icache.overallMshrHits::total          579                       # number of overall MSHR hits (Count)
system.cpu.icache.demandMshrMisses::cpu.inst        24763                       # number of demand (read+write) MSHR misses (Count)
system.cpu.icache.demandMshrMisses::total        24763                       # number of demand (read+write) MSHR misses (Count)
system.cpu.icache.overallMshrMisses::cpu.inst        24763                       # number of overall MSHR misses (Count)
system.cpu.icache.overallMshrMisses::total        24763                       # number of overall MSHR misses (Count)
system.cpu.icache.demandMshrMissLatency::cpu.inst    387610500                       # number of demand (read+write) MSHR miss ticks (Tick)
system.cpu.icache.demandMshrMissLatency::total    387610500                       # number of demand (read+write) MSHR miss ticks (Tick)
system.cpu.icache.overallMshrMissLatency::cpu.inst    387610500                       # number of overall MSHR miss ticks (Tick)
system.cpu.icache.overallMshrMissLatency::total    387610500                       # number of overall MSHR miss ticks (Tick)
system.cpu.icache.demandMshrMissRate::cpu.inst     0.058809                       # mshr miss ratio for demand accesses (Ratio)
system.cpu.icache.demandMshrMissRate::total     0.058809                       # mshr miss ratio for demand accesses (Ratio)
system.cpu.icache.overallMshrMissRate::cpu.inst     0.058809                       # mshr miss ratio for overall accesses (Ratio)
system.cpu.icache.overallMshrMissRate::total     0.058809                       # mshr miss ratio for overall accesses (Ratio)
system.cpu.icache.demandAvgMshrMissLatency::cpu.inst 15652.808626                       # average overall mshr miss latency ((Tick/Count))
system.cpu.icache.demandAvgMshrMissLatency::total 15652.808626                       # average overall mshr miss latency ((Tick/Count))
system.cpu.icache.overallAvgMshrMissLatency::cpu.inst 15652.808626                       # average overall mshr miss latency ((Tick/Count))
system.cpu.icache.overallAvgMshrMissLatency::total 15652.808626                       # average overall mshr miss latency ((Tick/Count))
system.cpu.icache.replacements                  24506                       # number of replacements (Count)
system.cpu.icache.ReadReq.hits::cpu.inst       395730                       # number of ReadReq hits (Count)
system.cpu.icache.ReadReq.hits::total          395730                       # number of ReadReq hits (Count)
system.cpu.icache.ReadReq.misses::cpu.inst        25342                       # number of ReadReq misses (Count)
system.cpu.icache.ReadReq.misses::total         25342                       # number of ReadReq misses (Count)
system.cpu.icache.ReadReq.missLatency::cpu.inst    442567500                       # number of ReadReq miss ticks (Tick)
system.cpu.icache.ReadReq.missLatency::total    442567500                       # number of ReadReq miss ticks (Tick)
system.cpu.icache.ReadReq.accesses::cpu.inst       421072                       # number of ReadReq accesses(hits+misses) (Count)
system.cpu.icache.ReadReq.accesses::total       421072                       # number of ReadReq accesses(hits+misses) (Count)
system.cpu.icache.ReadReq.missRate::cpu.inst     0.060184                       # miss rate for ReadReq accesses (Ratio)
system.cpu.icache.ReadReq.missRate::total     0.060184                       # miss rate for ReadReq accesses (Ratio)
system.cpu.icache.ReadReq.avgMissLatency::cpu.inst 17463.795281                       # average ReadReq miss latency ((Tick/Count))
system.cpu.icache.ReadReq.avgMissLatency::total 17463.795281                       # average ReadReq miss latency ((Tick/Count))
system.cpu.icache.ReadReq.mshrHits::cpu.inst          579                       # number of ReadReq MSHR hits (Count)
system.cpu.icache.ReadReq.mshrHits::total          579                       # number of ReadReq MSHR hits (Count)
system.cpu.icache.ReadReq.mshrMisses::cpu.inst        24763                       # number of ReadReq MSHR misses (Count)
system.cpu.icache.ReadReq.mshrMisses::total        24763                       # number of ReadReq MSHR misses (Count)
system.cpu.icache.ReadReq.mshrMissLatency::cpu.inst    387610500                       # number of ReadReq MSHR miss ticks (Tick)
system.cpu.icache.ReadReq.mshrMissLatency::total    387610500                       # number of ReadReq MSHR miss ticks (Tick)
system.cpu.icache.ReadReq.mshrMissRate::cpu.inst     0.058809                       # mshr miss rate for ReadReq accesses (Ratio)
system.cpu.icache.ReadReq.mshrMissRate::total     0.058809                       # mshr miss rate for ReadReq accesses (Ratio)
system.cpu.icache.ReadReq.avgMshrMissLatency::cpu.inst 15652.808626                       # average ReadReq mshr miss latency ((Tick/Count))
system.cpu.icache.ReadReq.avgMshrMissLatency::total 15652.808626                       # average ReadReq mshr miss latency ((Tick/Count))
system.cpu.icache.power_state.pwrStateResidencyTicks::UNDEFINED   1160943000                       # Cumulative time (in ticks) in various power states (Tick)
system.cpu.icache.tags.tagsInUse           253.198543                       # Average ticks per tags in use ((Tick/Count))
system.cpu.icache.tags.totalRefs               420492                       # Total number of references to valid blocks. (Count)
system.cpu.icache.tags.sampledRefs              24762                       # Sample count of references to valid blocks. (Count)
system.cpu.icache.tags.avgRefs              16.981342                       # Average number of references to valid blocks. ((Count/Count))
system.cpu.icache.tags.warmupTick               82000                       # The tick when the warmup percentage was hit. (Tick)
system.cpu.icache.tags.occupancies::cpu.inst   253.198543                       # Average occupied blocks per tick, per requestor ((Count/Tick))
system.cpu.icache.tags.avgOccs::cpu.inst     0.989057                       # Average percentage of cache occupancy ((Ratio/Tick))
system.cpu.icache.tags.avgOccs::total        0.989057                       # Average percentage of cache occupancy ((Ratio/Tick))
system.cpu.icache.tags.occupanciesTaskId::1024          256                       # Occupied blocks per task id (Count)
system.cpu.icache.tags.ageTaskId_1024::0          121                       # Occupied blocks per task id, per block age (Count)
system.cpu.icache.tags.ageTaskId_1024::2          130                       # Occupied blocks per task id, per block age (Count)
system.cpu.icache.tags.ageTaskId_1024::3            5                       # Occupied blocks per task id, per block age (Count)
system.cpu.icache.tags.ratioOccsTaskId::1024            1                       # Ratio of occupied blocks and all blocks, per task id (Ratio)
system.cpu.icache.tags.tagAccesses            1709050                       # Number of tag accesses (Count)
system.cpu.icache.tags.dataAccesses           1709050                       # Number of data accesses (Count)
system.cpu.icache.tags.power_state.pwrStateResidencyTicks::UNDEFINED   1160943000                       # Cumulative time (in ticks) in various power states (Tick)
system.cpu.iew.idleCycles                           0                       # Number of cycles IEW is idle (Cycle)
system.cpu.iew.squashCycles                     11305                       # Number of cycles IEW is squashing (Cycle)
system.cpu.iew.blockCycles                      92473                       # Number of cycles IEW is blocking (Cycle)
system.cpu.iew.unblockCycles                     4484                       # Number of cycles IEW is unblocking (Cycle)
system.cpu.iew.dispatchedInsts                5693610                       # Number of instructions dispatched to IQ (Count)
system.cpu.iew.dispSquashedInsts                  345                       # Number of squashed instructions skipped by dispatch (Count)
system.cpu.iew.dispLoadInsts                   779039                       # Number of dispatched load instructions (Count)
system.cpu.iew.dispStoreInsts                  509842                       # Number of dispatched store instructions (Count)
system.cpu.iew.dispNonSpecInsts                  2055                       # Number of dispatched non-speculative instructions (Count)
system.cpu.iew.iqFullEvents                      2015                       # Number of times the IQ has become full, causing a stall (Count)
system.cpu.iew.lsqFullEvents                     1289                       # Number of times the LSQ has become full, causing a stall (Count)
system.cpu.iew.memOrderViolationEvents           3159                       # Number of memory order violations (Count)
system.cpu.iew.predictedTakenIncorrect           1891                       # Number of branches that were predicted taken incorrectly (Count)
system.cpu.iew.predictedNotTakenIncorrect         6676                       # Number of branches that were predicted not taken incorrectly (Count)
system.cpu.iew.branchMispredicts                 8567                       # Number of branch mispredicts detected at execute (Count)
system.cpu.iew.instsToCommit                  5542914                       # Cumulative count of insts sent to commit (Count)
system.cpu.iew.writebackCount                 5537916                       # Cumulative count of insts written-back (Count)
system.cpu.iew.producerInst                   3822179                       # Number of instructions producing a value (Count)
system.cpu.iew.consumerInst                   6365318                       # Number of instructions consuming a value (Count)
system.cpu.iew.wbRate                        2.385093                       # Insts written-back per cycle ((Count/Cycle))
system.cpu.iew.wbFanout                      0.600469                       # Average fanout of values written-back ((Count/Count))
system.cpu.interrupts.clk_domain.clock           8000                       # Clock period in ticks (Tick)
system.cpu.lsq0.forwLoads                      145197                       # Number of loads that had data forwarded from stores (Count)
system.cpu.lsq0.squashedLoads                   52002                       # Number of loads squashed (Count)
system.cpu.lsq0.ignoredResponses                   37                       # Number of memory responses ignored because the instruction is squashed (Count)
system.cpu.lsq0.memOrderViolation                3159                       # Number of memory ordering violations (Count)
system.cpu.lsq0.squashedStores                  44824                       # Number of stores squashed (Count)
system.cpu.lsq0.rescheduledLoads                 7068                       # Number of loads that were rescheduled (Count)
system.cpu.lsq0.blockedByCache                    198                       # Number of times an access to memory failed due to the cache being blocked (Count)
system.cpu.lsq0.loadToUse::samples             727037                       # Distribution of cycle latency between the first time a load is issued and its completion (Unspecified)
system.cpu.lsq0.loadToUse::mean              4.300198                       # Distribution of cycle latency between the first time a load is issued and its completion (Unspecified)
system.cpu.lsq0.loadToUse::stdev            14.102043                       # Distribution of cycle latency between the first time a load is issued and its completion (Unspecified)
system.cpu.lsq0.loadToUse::0-9                 719356     98.94%     98.94% # Distribution of cycle latency between the first time a load is issued and its completion (Unspecified)
system.cpu.lsq0.loadToUse::10-19                  157      0.02%     98.97% # Distribution of cycle latency between the first time a load is issued and its completion (Unspecified)
system.cpu.lsq0.loadToUse::20-29                  233      0.03%     99.00% # Distribution of cycle latency between the first time a load is issued and its completion (Unspecified)
system.cpu.lsq0.loadToUse::30-39                   67      0.01%     99.01% # Distribution of cycle latency between the first time a load is issued and its completion (Unspecified)
system.cpu.lsq0.loadToUse::40-49                  956      0.13%     99.14% # Distribution of cycle latency between the first time a load is issued and its completion (Unspecified)
system.cpu.lsq0.loadToUse::50-59                  157      0.02%     99.16% # Distribution of cycle latency between the first time a load is issued and its completion (Unspecified)
system.cpu.lsq0.loadToUse::60-69                  277      0.04%     99.20% # Distribution of cycle latency between the first time a load is issued and its completion (Unspecified)
system.cpu.lsq0.loadToUse::70-79                  607      0.08%     99.28% # Distribution of cycle latency between the first time a load is issued and its completion (Unspecified)
system.cpu.lsq0.loadToUse::80-89                  231      0.03%     99.31% # Distribution of cycle latency between the first time a load is issued and its completion (Unspecified)
system.cpu.lsq0.loadToUse::90-99                  117      0.02%     99.33% # Distribution of cycle latency between the first time a load is issued and its completion (Unspecified)
system.cpu.lsq0.loadToUse::100-109                 69      0.01%     99.34% # Distribution of cycle latency between the first time a load is issued and its completion (Unspecified)
system.cpu.lsq0.loadToUse::110-119                147      0.02%     99.36% # Distribution of cycle latency between the first time a load is issued and its completion (Unspecified)
system.cpu.lsq0.loadToUse::120-129                581      0.08%     99.44% # Distribution of cycle latency between the first time a load is issued and its completion (Unspecified)
system.cpu.lsq0.loadToUse::130-139               2151      0.30%     99.73% # Distribution of cycle latency between the first time a load is issued and its completion (Unspecified)
[...]
system.mem_ctrl.dram.bytesWritten::total         1216                       # Number of bytes written to this memory (Byte)
system.mem_ctrl.dram.numReads::cpu.inst          1486                       # Number of read requests responded to by this memory (Count)
system.mem_ctrl.dram.numReads::cpu.data          2096                       # Number of read requests responded to by this memory (Count)
system.mem_ctrl.dram.numReads::total             3582                       # Number of read requests responded to by this memory (Count)
system.mem_ctrl.dram.numWrites::writebacks           19                       # Number of write requests responded to by this memory (Count)
system.mem_ctrl.dram.numWrites::total              19                       # Number of write requests responded to by this memory (Count)
system.mem_ctrl.dram.bwRead::cpu.inst        81919612                       # Total read bandwidth from this memory ((Byte/Second))
system.mem_ctrl.dram.bwRead::cpu.data       115547447                       # Total read bandwidth from this memory ((Byte/Second))
system.mem_ctrl.dram.bwRead::total          197467059                       # Total read bandwidth from this memory ((Byte/Second))
system.mem_ctrl.dram.bwInstRead::cpu.inst     81919612                       # Instruction read bandwidth from this memory ((Byte/Second))
system.mem_ctrl.dram.bwInstRead::total       81919612                       # Instruction read bandwidth from this memory ((Byte/Second))
system.mem_ctrl.dram.bwWrite::writebacks      1047424                       # Write bandwidth from this memory ((Byte/Second))
system.mem_ctrl.dram.bwWrite::total           1047424                       # Write bandwidth from this memory ((Byte/Second))
system.mem_ctrl.dram.bwTotal::writebacks      1047424                       # Total bandwidth to/from this memory ((Byte/Second))
system.mem_ctrl.dram.bwTotal::cpu.inst       81919612                       # Total bandwidth to/from this memory ((Byte/Second))
system.mem_ctrl.dram.bwTotal::cpu.data      115547447                       # Total bandwidth to/from this memory ((Byte/Second))
system.mem_ctrl.dram.bwTotal::total         198514483                       # Total bandwidth to/from this memory ((Byte/Second))
system.mem_ctrl.dram.readBursts                  3579                       # Number of DRAM read bursts (Count)
system.mem_ctrl.dram.writeBursts                    0                       # Number of DRAM write bursts (Count)
system.mem_ctrl.dram.perBankRdBursts::0           381                       # Per bank write bursts (Count)
system.mem_ctrl.dram.perBankRdBursts::1           218                       # Per bank write bursts (Count)
system.mem_ctrl.dram.perBankRdBursts::2           270                       # Per bank write bursts (Count)
system.mem_ctrl.dram.perBankRdBursts::3           216                       # Per bank write bursts (Count)
system.mem_ctrl.dram.perBankRdBursts::4           194                       # Per bank write bursts (Count)
system.mem_ctrl.dram.perBankRdBursts::5           101                       # Per bank write bursts (Count)
system.mem_ctrl.dram.perBankRdBursts::6           148                       # Per bank write bursts (Count)
system.mem_ctrl.dram.perBankRdBursts::7           149                       # Per bank write bursts (Count)
system.mem_ctrl.dram.perBankRdBursts::8           293                       # Per bank write bursts (Count)
system.mem_ctrl.dram.perBankRdBursts::9           270                       # Per bank write bursts (Count)
system.mem_ctrl.dram.perBankRdBursts::10          171                       # Per bank write bursts (Count)
system.mem_ctrl.dram.perBankRdBursts::11          235                       # Per bank write bursts (Count)
system.mem_ctrl.dram.perBankRdBursts::12          133                       # Per bank write bursts (Count)
system.mem_ctrl.dram.perBankRdBursts::13          221                       # Per bank write bursts (Count)
system.mem_ctrl.dram.perBankRdBursts::14          247                       # Per bank write bursts (Count)
system.mem_ctrl.dram.perBankRdBursts::15          332                       # Per bank write bursts (Count)
system.mem_ctrl.dram.perBankWrBursts::0             0                       # Per bank write bursts (Count)
system.mem_ctrl.dram.perBankWrBursts::1             0                       # Per bank write bursts (Count)
system.mem_ctrl.dram.perBankWrBursts::2             0                       # Per bank write bursts (Count)
system.mem_ctrl.dram.perBankWrBursts::3             0                       # Per bank write bursts (Count)
system.mem_ctrl.dram.perBankWrBursts::4             0                       # Per bank write bursts (Count)
system.mem_ctrl.dram.perBankWrBursts::5             0                       # Per bank write bursts (Count)
system.mem_ctrl.dram.perBankWrBursts::6             0                       # Per bank write bursts (Count)
system.mem_ctrl.dram.perBankWrBursts::7             0                       # Per bank write bursts (Count)
system.mem_ctrl.dram.perBankWrBursts::8             0                       # Per bank write bursts (Count)
system.mem_ctrl.dram.perBankWrBursts::9             0                       # Per bank write bursts (Count)
system.mem_ctrl.dram.perBankWrBursts::10            0                       # Per bank write bursts (Count)
system.mem_ctrl.dram.perBankWrBursts::11            0                       # Per bank write bursts (Count)
system.mem_ctrl.dram.perBankWrBursts::12            0                       # Per bank write bursts (Count)
system.mem_ctrl.dram.perBankWrBursts::13            0                       # Per bank write bursts (Count)
system.mem_ctrl.dram.perBankWrBursts::14            0                       # Per bank write bursts (Count)
system.mem_ctrl.dram.perBankWrBursts::15            0                       # Per bank write bursts (Count)
system.mem_ctrl.dram.totQLat                 27531500                       # Total ticks spent queuing (Tick)
system.mem_ctrl.dram.totBusLat               17895000                       # Total ticks spent in databus transfers (Tick)
system.mem_ctrl.dram.totMemAccLat            94637750                       # Total ticks spent from burst creation until serviced by the DRAM (Tick)
system.mem_ctrl.dram.avgQLat                  7692.51                       # Average queueing delay per DRAM burst ((Tick/Count))
system.mem_ctrl.dram.avgBusLat                5000.00                       # Average bus latency per DRAM burst ((Tick/Count))
system.mem_ctrl.dram.avgMemAccLat            26442.51                       # Average memory access latency per DRAM burst ((Tick/Count))
system.mem_ctrl.dram.readRowHits                 2850                       # Number of row buffer hits during reads (Count)
system.mem_ctrl.dram.writeRowHits                   0                       # Number of row buffer hits during writes (Count)
system.mem_ctrl.dram.readRowHitRate             79.63                       # Row buffer hit rate for reads (Ratio)
system.mem_ctrl.dram.writeRowHitRate              nan                       # Row buffer hit rate for writes (Ratio)
system.mem_ctrl.dram.bytesPerActivate::samples          727                       # Bytes accessed per row activation (Byte)
system.mem_ctrl.dram.bytesPerActivate::mean   314.277854                       # Bytes accessed per row activation (Byte)
system.mem_ctrl.dram.bytesPerActivate::gmean   188.861249                       # Bytes accessed per row activation (Byte)
system.mem_ctrl.dram.bytesPerActivate::stdev   327.193534                       # Bytes accessed per row activation (Byte)
system.mem_ctrl.dram.bytesPerActivate::0-127          245     33.70%     33.70% # Bytes accessed per row activation (Byte)
system.mem_ctrl.dram.bytesPerActivate::128-255          195     26.82%     60.52% # Bytes accessed per row activation (Byte)
system.mem_ctrl.dram.bytesPerActivate::256-383           73     10.04%     70.56% # Bytes accessed per row activation (Byte)
system.mem_ctrl.dram.bytesPerActivate::384-511           49      6.74%     77.30% # Bytes accessed per row activation (Byte)
system.mem_ctrl.dram.bytesPerActivate::512-639           33      4.54%     81.84% # Bytes accessed per row activation (Byte)
system.mem_ctrl.dram.bytesPerActivate::640-767           19      2.61%     84.46% # Bytes accessed per row activation (Byte)
system.mem_ctrl.dram.bytesPerActivate::768-895           12      1.65%     86.11% # Bytes accessed per row activation (Byte)
system.mem_ctrl.dram.bytesPerActivate::896-1023           13      1.79%     87.90% # Bytes accessed per row activation (Byte)
system.mem_ctrl.dram.bytesPerActivate::1024-1151           88     12.10%    100.00% # Bytes accessed per row activation (Byte)
system.mem_ctrl.dram.bytesPerActivate::total          727                       # Bytes accessed per row activation (Byte)
system.mem_ctrl.dram.bytesRead                 229056                       # Total bytes read (Byte)
system.mem_ctrl.dram.bytesWritten                   0                       # Total bytes written (Byte)
system.mem_ctrl.dram.avgRdBW               197.301676                       # Average DRAM read bandwidth in MiBytes/s ((Byte/Second))
system.mem_ctrl.dram.avgWrBW                        0                       # Average DRAM write bandwidth in MiBytes/s ((Byte/Second))
system.mem_ctrl.dram.peakBW                  12800.00                       # Theoretical peak bandwidth in MiByte/s ((Byte/Second))
system.mem_ctrl.dram.busUtil                     1.54                       # Data bus utilization in percentage (Ratio)
system.mem_ctrl.dram.busUtilRead                 1.54                       # Data bus utilization in percentage for reads (Ratio)
system.mem_ctrl.dram.busUtilWrite                0.00                       # Data bus utilization in percentage for writes (Ratio)
system.mem_ctrl.dram.pageHitRate                79.63                       # Row buffer hit rate, read and write combined (Ratio)
system.mem_ctrl.dram.power_state.pwrStateResidencyTicks::UNDEFINED   1160943000                       # Cumulative time (in ticks) in various power states (Tick)
system.mem_ctrl.dram.rank0.actEnergy          2341920                       # Energy for activate commands per rank (pJ) (Joule)
system.mem_ctrl.dram.rank0.preEnergy          1240965                       # Energy for precharge commands per rank (pJ) (Joule)
system.mem_ctrl.dram.rank0.readEnergy        11973780                       # Energy for read commands per rank (pJ) (Joule)
system.mem_ctrl.dram.rank0.writeEnergy              0                       # Energy for write commands per rank (pJ) (Joule)
system.mem_ctrl.dram.rank0.refreshEnergy 91581360.000000                       # Energy for refresh commands per rank (pJ) (Joule)
system.mem_ctrl.dram.rank0.actBackEnergy    103646520                       # Energy for active background per rank (pJ) (Joule)
system.mem_ctrl.dram.rank0.preBackEnergy    358521120                       # Energy for precharge background per rank (pJ) (Joule)
system.mem_ctrl.dram.rank0.actPowerDownEnergy            0                       # Energy for active power-down per rank (pJ) (Joule)
system.mem_ctrl.dram.rank0.prePowerDownEnergy            0                       # Energy for precharge power-down per rank (pJ) (Joule)
system.mem_ctrl.dram.rank0.selfRefreshEnergy            0                       # Energy for self refresh per rank (pJ) (Joule)
system.mem_ctrl.dram.rank0.totalEnergy      569305665                       # Total energy per rank (pJ) (Joule)
system.mem_ctrl.dram.rank0.averagePower    490.382099                       # Core power per rank (mW) (Watt)
system.mem_ctrl.dram.rank0.totalIdleTime            0                       # Total Idle time Per DRAM Rank (Tick)
system.mem_ctrl.dram.rank0.pwrStateTime::IDLE    930904750                       # Time in different power states (Tick)
system.mem_ctrl.dram.rank0.pwrStateTime::REF     38740000                       # Time in different power states (Tick)
system.mem_ctrl.dram.rank0.pwrStateTime::SREF            0                       # Time in different power states (Tick)
system.mem_ctrl.dram.rank0.pwrStateTime::PRE_PDN            0                       # Time in different power states (Tick)
system.mem_ctrl.dram.rank0.pwrStateTime::ACT    191298250                       # Time in different power states (Tick)
system.mem_ctrl.dram.rank0.pwrStateTime::ACT_PDN            0                       # Time in different power states (Tick)
system.mem_ctrl.dram.rank1.actEnergy          2863140                       # Energy for activate commands per rank (pJ) (Joule)
system.mem_ctrl.dram.rank1.preEnergy          1518000                       # Energy for precharge commands per rank (pJ) (Joule)
system.mem_ctrl.dram.rank1.readEnergy        13580280                       # Energy for read commands per rank (pJ) (Joule)
system.mem_ctrl.dram.rank1.writeEnergy              0                       # Energy for write commands per rank (pJ) (Joule)
system.mem_ctrl.dram.rank1.refreshEnergy 91581360.000000                       # Energy for refresh commands per rank (pJ) (Joule)
system.mem_ctrl.dram.rank1.actBackEnergy    295155690                       # Energy for active background per rank (pJ) (Joule)
system.mem_ctrl.dram.rank1.preBackEnergy    197250240                       # Energy for precharge background per rank (pJ) (Joule)
system.mem_ctrl.dram.rank1.actPowerDownEnergy            0                       # Energy for active power-down per rank (pJ) (Joule)
system.mem_ctrl.dram.rank1.prePowerDownEnergy            0                       # Energy for precharge power-down per rank (pJ) (Joule)
system.mem_ctrl.dram.rank1.selfRefreshEnergy            0                       # Energy for self refresh per rank (pJ) (Joule)
system.mem_ctrl.dram.rank1.totalEnergy      601948710                       # Total energy per rank (pJ) (Joule)
system.mem_ctrl.dram.rank1.averagePower    518.499797                       # Core power per rank (mW) (Watt)
system.mem_ctrl.dram.rank1.totalIdleTime            0                       # Total Idle time Per DRAM Rank (Tick)
system.mem_ctrl.dram.rank1.pwrStateTime::IDLE    509853000                       # Time in different power states (Tick)
system.mem_ctrl.dram.rank1.pwrStateTime::REF     38740000                       # Time in different power states (Tick)
system.mem_ctrl.dram.rank1.pwrStateTime::SREF            0                       # Time in different power states (Tick)
system.mem_ctrl.dram.rank1.pwrStateTime::PRE_PDN            0                       # Time in different power states (Tick)
system.mem_ctrl.dram.rank1.pwrStateTime::ACT    612350000                       # Time in different power states (Tick)
system.mem_ctrl.dram.rank1.pwrStateTime::ACT_PDN            0                       # Time in different power states (Tick)
system.mem_ctrl.power_state.pwrStateResidencyTicks::UNDEFINED   1160943000                       # Cumulative time (in ticks) in various power states (Tick)
system.membus.transDist::ReadResp                2769                       # Transaction distribution (Count)
system.membus.transDist::WritebackDirty            19                       # Transaction distribution (Count)
system.membus.transDist::CleanEvict               127                       # Transaction distribution (Count)
system.membus.transDist::ReadExReq                813                       # Transaction distribution (Count)
system.membus.transDist::ReadExResp               813                       # Transaction distribution (Count)
system.membus.transDist::ReadSharedReq           2769                       # Transaction distribution (Count)
system.membus.pktCount_system.l2cache.mem_side_port::system.mem_ctrl.port         7310                       # Packet count per connected requestor and responder (Count)
system.membus.pktCount_system.l2cache.mem_side_port::total         7310                       # Packet count per connected requestor and responder (Count)
system.membus.pktCount::total                    7310                       # Packet count per connected requestor and responder (Count)
system.membus.pktSize_system.l2cache.mem_side_port::system.mem_ctrl.port       230464                       # Cumulative packet size per connected requestor and responder (Byte)
system.membus.pktSize_system.l2cache.mem_side_port::total       230464                       # Cumulative packet size per connected requestor and responder (Byte)
system.membus.pktSize::total                   230464                       # Cumulative packet size per connected requestor and responder (Byte)
system.membus.snoops                                0                       # Total snoops (Count)
system.membus.snoopTraffic                          0                       # Total snoop traffic (Byte)
system.membus.snoopFanout::samples               3582                       # Request fanout histogram (Count)
system.membus.snoopFanout::mean                     0                       # Request fanout histogram (Count)
system.membus.snoopFanout::stdev                    0                       # Request fanout histogram (Count)
system.membus.snoopFanout::underflows               0      0.00%      0.00% # Request fanout histogram (Count)
system.membus.snoopFanout::0                     3582    100.00%    100.00% # Request fanout histogram (Count)
system.membus.snoopFanout::1                        0      0.00%    100.00% # Request fanout histogram (Count)
system.membus.snoopFanout::overflows                0      0.00%    100.00% # Request fanout histogram (Count)
system.membus.snoopFanout::min_value                0                       # Request fanout histogram (Count)
system.membus.snoopFanout::max_value                0                       # Request fanout histogram (Count)
system.membus.snoopFanout::total                 3582                       # Request fanout histogram (Count)
system.membus.power_state.pwrStateResidencyTicks::UNDEFINED   1160943000                       # Cumulative time (in ticks) in various power states (Tick)
system.membus.reqLayer2.occupancy             1902000                       # Layer occupancy (ticks) (Tick)
system.membus.reqLayer2.utilization               0.0                       # Layer utilization (Ratio)
system.membus.respLayer0.occupancy            9725250                       # Layer occupancy (ticks) (Tick)
system.membus.respLayer0.utilization              0.0                       # Layer utilization (Ratio)
system.membus.snoop_filter.totRequests           3728                       # Total number of requests made to the snoop filter. (Count)
system.membus.snoop_filter.hitSingleRequests          146                       # Number of requests hitting in the snoop filter with a single holder of the requested data. (Count)
system.membus.snoop_filter.hitMultiRequests            0                       # Number of requests hitting in the snoop filter with multiple (>1) holders of the requested data. (Count)
system.membus.snoop_filter.totSnoops                0                       # Total number of snoops made to the snoop filter. (Count)
system.membus.snoop_filter.hitSingleSnoops            0                       # Number of snoops hitting in the snoop filter with a single holder of the requested data. (Count)
system.membus.snoop_filter.hitMultiSnoops            0                       # Number of snoops hitting in the snoop filter with multiple (>1) holders of the requested data. (Count)
system.workload.inst.arm                            0                       # number of arm instructions executed (Count)
system.workload.inst.quiesce                        0                       # number of quiesce instructions executed (Count)

---------- End Simulation Statistics   ----------
