
---------- Begin Simulation Statistics ----------
simSeconds                                   0.001990                       # Number of seconds simulated (Second)
simTicks                                   1989696500                       # Number of ticks simulated (Tick)
finalTick                                  1989696500                       # Number of ticks from beginning of simulation (restored from checkpoints and never reset) (Tick)
simFreq                                  1000000000000                       # The number of ticks per simulated second ((Tick/Second))
hostSeconds                                     12.22                       # Real time elapsed on the host (Second)
hostTickRate                                162795306                       # The number of ticks simulated per host second (ticks/s) ((Tick/Second))
hostMemory                                    1223196                       # Number of bytes of host memory used (Byte)
simInsts                                      2849860                       # Number of instructions simulated (Count)
simOps                                        5296197                       # Number of ops (including micro ops) simulated (Count)
hostInstRate                                   233170                       # Simulator instruction rate (inst/s) ((Count/Second))
hostOpRate                                     433325                       # Simulator op (including micro ops) rate (op/s) ((Count/Second))
system.clk_domain.clock                           500                       # Clock period in ticks (Tick)
system.clk_domain.voltage_domain.voltage            1                       # Voltage in Volts (Volt)
system.cpu.numCycles                          3979394                       # Number of cpu cycles simulated (Cycle)
system.cpu.numWorkItemsStarted                      0                       # Number of work items this cpu started (Count)
system.cpu.numWorkItemsCompleted                    0                       # Number of work items this cpu completed (Count)
system.cpu.instsAdded                         5681443                       # Number of instructions added to the IQ (excludes non-spec) (Count)
system.cpu.nonSpecInstsAdded                     6140                       # Number of non-speculative instructions added to the IQ (Count)
system.cpu.instsIssued                        5587030                       # Number of instructions issued (Count)
system.cpu.squashedInstsIssued                   2034                       # Number of squashed instructions issued (Count)
system.cpu.squashedInstsExamined               391380                       # Number of squashed instructions iterated over during squash; mainly for profiling (Count)
system.cpu.squashedOperandsExamined            655446                       # Number of squashed operands that are examined and possibly removed from graph (Count)
system.cpu.squashedNonSpecRemoved                  68                       # Number of squashed non-spec instructions that were removed (Count)
system.cpu.numIssuedDist::samples             3748548                       # Number of insts issued each cycle (Count)
system.cpu.numIssuedDist::mean               1.490452                       # Number of insts issued each cycle (Count)
system.cpu.numIssuedDist::stdev              2.142263                       # Number of insts issued each cycle (Count)
system.cpu.numIssuedDist::underflows                0      0.00%      0.00% # Number of insts issued each cycle (Count)
system.cpu.numIssuedDist::0                   2104620     56.14%     56.14% # Number of insts issued each cycle (Count)
system.cpu.numIssuedDist::1                    354202      9.45%     65.59% # Number of insts issued each cycle (Count)
system.cpu.numIssuedDist::2                    334842      8.93%     74.53% # Number of insts issued each cycle (Count)
system.cpu.numIssuedDist::3                    244564      6.52%     81.05% # Number of insts issued each cycle (Count)
system.cpu.numIssuedDist::4                    208081      5.55%     86.60% # Number of insts issued each cycle (Count)
system.cpu.numIssuedDist::5                    180242      4.81%     91.41% # Number of insts issued each cycle (Count)
system.cpu.numIssuedDist::6                    196721      5.25%     96.66% # Number of insts issued each cycle (Count)
system.cpu.numIssuedDist::7                     86616      2.31%     98.97% # Number of insts issued each cycle (Count)
system.cpu.numIssuedDist::8                     38660      1.03%    100.00% # Number of insts issued each cycle (Count)
system.cpu.numIssuedDist::overflows                 0      0.00%    100.00% # Number of insts issued each cycle (Count)
system.cpu.numIssuedDist::min_value                 0                       # Number of insts issued each cycle (Count)
system.cpu.numIssuedDist::max_value                 8                       # Number of insts issued each cycle (Count)
system.cpu.numIssuedDist::total               3748548                       # Number of insts issued each cycle (Count)
system.cpu.statFuBusy::No_OpClass                   0      0.00%      0.00% # attempts to use FU when none available (Count)
system.cpu.statFuBusy::IntAlu                   51741     78.28%     78.28% # attempts to use FU when none available (Count)
system.cpu.statFuBusy::IntMult                      0      0.00%     78.28% # attempts to use FU when none available (Count)
system.cpu.statFuBusy::IntDiv                       0      0.00%     78.28% # attempts to use FU when none available (Count)
system.cpu.statFuBusy::FloatAdd                     0      0.00%     78.28% # attempts to use FU when none available (Count)
system.cpu.statFuBusy::FloatCmp                     0      0.00%     78.28% # attempts to use FU when none available (Count)
system.cpu.statFuBusy::FloatCvt                     0      0.00%     78.28% # attempts to use FU when none available (Count)
system.cpu.statFuBusy::FloatMult                    0      0.00%     78.28% # attempts to use FU when none available (Count)
system.cpu.statFuBusy::FloatMultAcc                 0      0.00%     78.28% # attempts to use FU when none available (Count)
system.cpu.statFuBusy::FloatDiv                     0      0.00%     78.28% # attempts to use FU when none available (Count)
system.cpu.statFuBusy::FloatMisc                    0      0.00%     78.28% # attempts to use FU when none available (Count)
system.cpu.statFuBusy::FloatSqrt                    0      0.00%     78.28% # attempts to use FU when none available (Count)
system.cpu.statFuBusy::SimdAdd                      0      0.00%     78.28% # attempts to use FU when none available (Count)
system.cpu.statFuBusy::SimdAddAcc                   0      0.00%     78.28% # attempts to use FU when none available (Count)
system.cpu.statFuBusy::SimdAlu                   1019      1.54%     79.82% # attempts to use FU when none available (Count)
system.cpu.statFuBusy::SimdCmp                      0      0.00%     79.82% # attempts to use FU when none available (Count)
system.cpu.statFuBusy::SimdCvt                      8      0.01%     79.83% # attempts to use FU when none available (Count)
system.cpu.statFuBusy::SimdMisc                     1      0.00%     79.83% # attempts to use FU when none available (Count)
system.cpu.statFuBusy::SimdMult                     0      0.00%     79.83% # attempts to use FU when none available (Count)
system.cpu.statFuBusy::SimdMultAcc                  0      0.00%     79.83% # attempts to use FU when none available (Count)
system.cpu.statFuBusy::SimdShift                    0      0.00%     79.83% # attempts to use FU when none available (Count)
system.cpu.statFuBusy::SimdShiftAcc                 0      0.00%     79.83% # attempts to use FU when none available (Count)
system.cpu.statFuBusy::SimdDiv                      0      0.00%     79.83% # attempts to use FU when none available (Count)
system.cpu.statFuBusy::SimdSqrt                     0      0.00%     79.83% # attempts to use FU when none available (Count)
system.cpu.statFuBusy::SimdFloatAdd                 0      0.00%     79.83% # attempts to use FU when none available (Count)
system.cpu.statFuBusy::SimdFloatAlu                 0      0.00%     79.83% # attempts to use FU when none available (Count)
system.cpu.statFuBusy::SimdFloatCmp                 0      0.00%     79.83% # attempts to use FU when none available (Count)
system.cpu.statFuBusy::SimdFloatCvt                 0      0.00%     79.83% # attempts to use FU when none available (Count)
system.cpu.statFuBusy::SimdFloatDiv                 0      0.00%     79.83% # attempts to use FU when none available (Count)
system.cpu.statFuBusy::SimdFloatMisc                0      0.00%     79.83% # attempts to use FU when none available (Count)
system.cpu.statFuBusy::SimdFloatMult                0      0.00%     79.83% # attempts to use FU when none available (Count)
system.cpu.statFuBusy::SimdFloatMultAcc             0      0.00%     79.83% # attempts to use FU when none available (Count)
system.cpu.statFuBusy::SimdFloatSqrt                0      0.00%     79.83% # attempts to use FU when none available (Count)
system.cpu.statFuBusy::SimdReduceAdd                0      0.00%     79.83% # attempts to use FU when none available (Count)
system.cpu.statFuBusy::SimdReduceAlu                0      0.00%     79.83% # attempts to use FU when none available (Count)
system.cpu.statFuBusy::SimdReduceCmp                0      0.00%     79.83% # attempts to use FU when none available (Count)
system.cpu.statFuBusy::SimdFloatReduceAdd            0      0.00%     79.83% # attempts to use FU when none available (Count)
system.cpu.statFuBusy::SimdFloatReduceCmp            0      0.00%     79.83% # attempts to use FU when none available (Count)
system.cpu.statFuBusy::SimdAes                      0      0.00%     79.83% # attempts to use FU when none available (Count)
system.cpu.statFuBusy::SimdAesMix                   0      0.00%     79.83% # attempts to use FU when none available (Count)
system.cpu.statFuBusy::SimdSha1Hash                 0      0.00%     79.83% # attempts to use FU when none available (Count)
system.cpu.statFuBusy::SimdSha1Hash2                0      0.00%     79.83% # attempts to use FU when none available (Count)
system.cpu.statFuBusy::SimdSha256Hash               0      0.00%     79.83% # attempts to use FU when none available (Count)
system.cpu.statFuBusy::SimdSha256Hash2              0      0.00%     79.83% # attempts to use FU when none available (Count)
system.cpu.statFuBusy::SimdShaSigma2                0      0.00%     79.83% # attempts to use FU when none available (Count)
system.cpu.statFuBusy::SimdShaSigma3                0      0.00%     79.83% # attempts to use FU when none available (Count)
system.cpu.statFuBusy::SimdPredAlu                  0      0.00%     79.83% # attempts to use FU when none available (Count)
system.cpu.statFuBusy::MemRead                   6294      9.52%     89.35% # attempts to use FU when none available (Count)
system.cpu.statFuBusy::MemWrite                  2475      3.74%     93.10% # attempts to use FU when none available (Count)
system.cpu.statFuBusy::FloatMemRead              1396      2.11%     95.21% # attempts to use FU when none available (Count)
system.cpu.statFuBusy::FloatMemWrite             3166      4.79%    100.00% # attempts to use FU when none available (Count)
system.cpu.statFuBusy::IprAccess                    0      0.00%    100.00% # attempts to use FU when none available (Count)
system.cpu.statFuBusy::InstPrefetch                 0      0.00%    100.00% # attempts to use FU when none available (Count)
system.cpu.statIssuedInstType_0::No_OpClass        64882      1.16%      1.16% # Number of instructions issued per FU type, per thread (Count)
system.cpu.statIssuedInstType_0::IntAlu       4138469     74.07%     75.23% # Number of instructions issued per FU type, per thread (Count)
system.cpu.statIssuedInstType_0::IntMult         4560      0.08%     75.32% # Number of instructions issued per FU type, per thread (Count)
system.cpu.statIssuedInstType_0::IntDiv         19201      0.34%     75.66% # Number of instructions issued per FU type, per thread (Count)
system.cpu.statIssuedInstType_0::FloatAdd        28868      0.52%     76.18% # Number of instructions issued per FU type, per thread (Count)
system.cpu.statIssuedInstType_0::FloatCmp            0      0.00%     76.18% # Number of instructions issued per FU type, per thread (Count)
system.cpu.statIssuedInstType_0::FloatCvt           32      0.00%     76.18% # Number of instructions issued per FU type, per thread (Count)
system.cpu.statIssuedInstType_0::FloatMult            0      0.00%     76.18% # Number of instructions issued per FU type, per thread (Count)
system.cpu.statIssuedInstType_0::FloatMultAcc            0      0.00%     76.18% # Number of instructions issued per FU type, per thread (Count)
system.cpu.statIssuedInstType_0::FloatDiv            0      0.00%     76.18% # Number of instructions issued per FU type, per thread (Count)
system.cpu.statIssuedInstType_0::FloatMisc            0      0.00%     76.18% # Number of instructions issued per FU type, per thread (Count)
system.cpu.statIssuedInstType_0::FloatSqrt            0      0.00%     76.18% # Number of instructions issued per FU type, per thread (Count)
system.cpu.statIssuedInstType_0::SimdAdd          472      0.01%     76.19% # Number of instructions issued per FU type, per thread (Count)
system.cpu.statIssuedInstType_0::SimdAddAcc            0      0.00%     76.19% # Number of instructions issued per FU type, per thread (Count)
system.cpu.statIssuedInstType_0::SimdAlu        21678      0.39%     76.57% # Number of instructions issued per FU type, per thread (Count)
system.cpu.statIssuedInstType_0::SimdCmp            0      0.00%     76.57% # Number of instructions issued per FU type, per thread (Count)
system.cpu.statIssuedInstType_0::SimdCvt        11289      0.20%     76.78% # Number of instructions issued per FU type, per thread (Count)
system.cpu.statIssuedInstType_0::SimdMisc        25196      0.45%     77.23% # Number of instructions issued per FU type, per thread (Count)
system.cpu.statIssuedInstType_0::SimdMult            0      0.00%     77.23% # Number of instructions issued per FU type, per thread (Count)
system.cpu.statIssuedInstType_0::SimdMultAcc            0      0.00%     77.23% # Number of instructions issued per FU type, per thread (Count)
system.cpu.statIssuedInstType_0::SimdShift          522      0.01%     77.24% # Number of instructions issued per FU type, per thread (Count)
system.cpu.statIssuedInstType_0::SimdShiftAcc            0      0.00%     77.24% # Number of instructions issued per FU type, per thread (Count)
system.cpu.statIssuedInstType_0::SimdDiv            0      0.00%     77.24% # Number of instructions issued per FU type, per thread (Count)
system.cpu.statIssuedInstType_0::SimdSqrt            0      0.00%     77.24% # Number of instructions issued per FU type, per thread (Count)
system.cpu.statIssuedInstType_0::SimdFloatAdd            0      0.00%     77.24% # Number of instructions issued per FU type, per thread (Count)
system.cpu.statIssuedInstType_0::SimdFloatAlu            0      0.00%     77.24% # Number of instructions issued per FU type, per thread (Count)
system.cpu.statIssuedInstType_0::SimdFloatCmp            0      0.00%     77.24% # Number of instructions issued per FU type, per thread (Count)
system.cpu.statIssuedInstType_0::SimdFloatCvt        12411      0.22%     77.46% # Number of instructions issued per FU type, per thread (Count)
system.cpu.statIssuedInstType_0::SimdFloatDiv            0      0.00%     77.46% # Number of instructions issued per FU type, per thread (Count)
system.cpu.statIssuedInstType_0::SimdFloatMisc            0      0.00%     77.46% # Number of instructions issued per FU type, per thread (Count)
system.cpu.statIssuedInstType_0::SimdFloatMult            0      0.00%     77.46% # Number of instructions issued per FU type, per thread (Count)
system.cpu.statIssuedInstType_0::SimdFloatMultAcc            0      0.00%     77.46% # Number of instructions issued per FU type, per thread (Count)
system.cpu.statIssuedInstType_0::SimdFloatSqrt            0      0.00%     77.46% # Number of instructions issued per FU type, per thread (Count)
system.cpu.statIssuedInstType_0::SimdReduceAdd            0      0.00%     77.46% # Number of instructions issued per FU type, per thread (Count)
system.cpu.statIssuedInstType_0::SimdReduceAlu            0      0.00%     77.46% # Number of instructions issued per FU type, per thread (Count)
system.cpu.statIssuedInstType_0::SimdReduceCmp            0      0.00%     77.46% # Number of instructions issued per FU type, per thread (Count)
system.cpu.statIssuedInstType_0::SimdFloatReduceAdd            0      0.00%     77.46% # Number of instructions issued per FU type, per thread (Count)
system.cpu.statIssuedInstType_0::SimdFloatReduceCmp            0      0.00%     77.46% # Number of instructions issued per FU type, per thread (Count)
system.cpu.statIssuedInstType_0::SimdAes            0      0.00%     77.46% # Number of instructions issued per FU type, per thread (Count)
system.cpu.statIssuedInstType_0::SimdAesMix            0      0.00%     77.46% # Number of instructions issued per FU type, per thread (Count)
system.cpu.statIssuedInstType_0::SimdSha1Hash            0      0.00%     77.46% # Number of instructions issued per FU type, per thread (Count)
system.cpu.statIssuedInstType_0::SimdSha1Hash2            0      0.00%     77.46% # Number of instructions issued per FU type, per thread (Count)
system.cpu.statIssuedInstType_0::SimdSha256Hash            0      0.00%     77.46% # Number of instructions issued per FU type, per thread (Count)
system.cpu.statIssuedInstType_0::SimdSha256Hash2            0      0.00%     77.46% # Number of instructions issued per FU type, per thread (Count)
system.cpu.statIssuedInstType_0::SimdShaSigma2            0      0.00%     77.46% # Number of instructions issued per FU type, per thread (Count)
system.cpu.statIssuedInstType_0::SimdShaSigma3            0      0.00%     77.46% # Number of instructions issued per FU type, per thread (Count)
system.cpu.statIssuedInstType_0::SimdPredAlu            0      0.00%     77.46% # Number of instructions issued per FU type, per thread (Count)
system.cpu.statIssuedInstType_0::MemRead       734104     13.14%     90.60% # Number of instructions issued per FU type, per thread (Count)
system.cpu.statIssuedInstType_0::MemWrite       457548      8.19%     98.79% # Number of instructions issued per FU type, per thread (Count)
system.cpu.statIssuedInstType_0::FloatMemRead        43746      0.78%     99.57% # Number of instructions issued per FU type, per thread (Count)
system.cpu.statIssuedInstType_0::FloatMemWrite        24052      0.43%    100.00% # Number of instructions issued per FU type, per thread (Count)
system.cpu.statIssuedInstType_0::IprAccess            0      0.00%    100.00% # Number of instructions issued per FU type, per thread (Count)
system.cpu.statIssuedInstType_0::InstPrefetch            0      0.00%    100.00% # Number of instructions issued per FU type, per thread (Count)
system.cpu.statIssuedInstType_0::total        5587030                       # Number of instructions issued per FU type, per thread (Count)
system.cpu.issueRate                         1.403990                       # Inst issue rate ((Count/Cycle))
system.cpu.fuBusy                               66100                       # FU busy when requested (Count)
system.cpu.fuBusyRate                        0.011831                       # FU busy rate (busy events/executed inst) ((Count/Count))
system.cpu.intInstQueueReads                 14631602                       # Number of integer instruction queue reads (Count)
system.cpu.intInstQueueWrites                 5881188                       # Number of integer instruction queue writes (Count)
system.cpu.intInstQueueWakeupAccesses         5371751                       # Number of integer instruction queue wakeup accesses (Count)
system.cpu.fpInstQueueReads                    359140                       # Number of floating instruction queue reads (Count)
system.cpu.fpInstQueueWrites                   197940                       # Number of floating instruction queue writes (Count)
system.cpu.fpInstQueueWakeupAccesses           168137                       # Number of floating instruction queue wakeup accesses (Count)
system.cpu.vecInstQueueReads                        0                       # Number of vector instruction queue reads (Count)
system.cpu.vecInstQueueWrites                       0                       # Number of vector instruction queue writes (Count)
system.cpu.vecInstQueueWakeupAccesses               0                       # Number of vector instruction queue wakeup accesses (Count)
system.cpu.intAluAccesses                     5405972                       # Number of integer alu accesses (Count)
system.cpu.fpAluAccesses                       182276                       # Number of floating point alu accesses (Count)
system.cpu.vecAluAccesses                           0                       # Number of vector alu accesses (Count)
system.cpu.numInsts                           5553887                       # Number of executed instructions (Count)
system.cpu.numLoadInsts                        770395                       # Number of load instructions executed (Count)
system.cpu.numSquashedInsts                     33143                       # Number of squashed instructions skipped in execute (Count)
system.cpu.numSwp                                   0                       # Number of swp insts executed (Count)
system.cpu.numNop                                   0                       # Number of nop insts executed (Count)
system.cpu.numRefs                            1248206                       # Number of memory reference insts executed (Count)
system.cpu.numBranches                         566560                       # Number of branches executed (Count)
system.cpu.numStoreInsts                       477811                       # Number of stores executed (Count)
system.cpu.numRate                           1.395662                       # Inst execution rate ((Count/Cycle))
system.cpu.timesIdled                           54829                       # Number of times that the entire CPU went into an idle state and unscheduled itself (Count)
system.cpu.idleCycles                          230846                       # Total number of cycles that the CPU has spent unscheduled due to idling (Cycle)
system.cpu.committedInsts                     2849860                       # Number of Instructions Simulated (Count)
system.cpu.committedOps                       5296197                       # Number of Ops (including micro ops) Simulated (Count)
system.cpu.cpi                               1.396347                       # CPI: Cycles Per Instruction ((Cycle/Count))
system.cpu.totalCpi                          1.396347                       # CPI: Total CPI of All Threads ((Cycle/Count))
system.cpu.ipc                               0.716154                       # IPC: Instructions Per Cycle ((Count/Cycle))
system.cpu.totalIpc                          0.716154                       # IPC: Total IPC of All Threads ((Count/Cycle))
system.cpu.intRegfileReads                    7126717                       # Number of integer regfile reads (Count)
system.cpu.intRegfileWrites                   4006651                       # Number of integer regfile writes (Count)
system.cpu.fpRegfileReads                      186600                       # Number of floating regfile reads (Count)
system.cpu.fpRegfileWrites                     123848                       # Number of floating regfile writes (Count)
system.cpu.ccRegfileReads                     2861080                       # number of cc regfile reads (Count)
system.cpu.ccRegfileWrites                    1783793                       # number of cc regfile writes (Count)
system.cpu.miscRegfileReads                   2365583                       # number of misc regfile reads (Count)
system.cpu.miscRegfileWrites                       18                       # number of misc regfile writes (Count)
system.cpu.MemDepUnit__0.insertedLoads         782898                       # Number of loads inserted to the mem dependence unit. (Count)
system.cpu.MemDepUnit__0.insertedStores        491224                       # Number of stores inserted to the mem dependence unit. (Count)
system.cpu.MemDepUnit__0.conflictingLoads        74388                       # Number of conflicting loads. (Count)
system.cpu.MemDepUnit__0.conflictingStores        26168                       # Number of conflicting stores. (Count)
system.cpu.MemDepUnit__1.insertedLoads              0                       # Number of loads inserted to the mem dependence unit. (Count)
system.cpu.MemDepUnit__1.insertedStores             0                       # Number of stores inserted to the mem dependence unit. (Count)
system.cpu.MemDepUnit__1.conflictingLoads            0                       # Number of conflicting loads. (Count)
system.cpu.MemDepUnit__1.conflictingStores            0                       # Number of conflicting stores. (Count)
system.cpu.MemDepUnit__2.insertedLoads              0                       # Number of loads inserted to the mem dependence unit. (Count)
system.cpu.MemDepUnit__2.insertedStores             0                       # Number of stores inserted to the mem dependence unit. (Count)
system.cpu.MemDepUnit__2.conflictingLoads            0                       # Number of conflicting loads. (Count)
system.cpu.MemDepUnit__2.conflictingStores            0                       # Number of conflicting stores. (Count)
system.cpu.MemDepUnit__3.insertedLoads              0                       # Number of loads inserted to the mem dependence unit. (Count)
system.cpu.MemDepUnit__3.insertedStores             0                       # Number of stores inserted to the mem dependence unit. (Count)
system.cpu.MemDepUnit__3.conflictingLoads            0                       # Number of conflicting loads. (Count)
system.cpu.MemDepUnit__3.conflictingStores            0                       # Number of conflicting stores. (Count)
system.cpu.branchPred.lookups                  615616                       # Number of BP lookups (Count)
system.cpu.branchPred.condPredicted            451986                       # Number of conditional branches predicted (Count)
system.cpu.branchPred.condIncorrect             12364                       # Number of conditional branches incorrect (Count)
system.cpu.branchPred.BTBLookups               297935                       # Number of BTB lookups (Count)
system.cpu.branchPred.BTBUpdates                 9815                       # Number of BTB updates (Count)
system.cpu.branchPred.BTBHits                  296836                       # Number of BTB hits (Count)
system.cpu.branchPred.BTBHitRatio            0.996311                       # BTB Hit Ratio (Ratio)
system.cpu.branchPred.RASUsed                   47953                       # Number of times the RAS was used to get a target. (Count)
system.cpu.branchPred.RASIncorrect                  1                       # Number of incorrect RAS predictions. (Count)
system.cpu.branchPred.indirectLookups           18321                       # Number of indirect predictor lookups. (Count)
system.cpu.branchPred.indirectHits              15205                       # Number of indirect target hits. (Count)
system.cpu.branchPred.indirectMisses             3116                       # Number of indirect misses. (Count)
system.cpu.branchPred.indirectMispredicted          338                       # Number of mispredicted indirect branches. (Count)
system.cpu.commit.commitSquashedInsts          390056                       # The number of squashed insts skipped by commit (Count)
system.cpu.commit.commitNonSpecStalls            6072                       # The number of times commit has been forced to stall to communicate backwards (Count)
system.cpu.commit.branchMispredicts             11404                       # The number of times a branch was mispredicted (Count)
system.cpu.commit.numCommittedDist::samples      3692393                       # Number of insts commited each cycle (Count)
system.cpu.commit.numCommittedDist::mean     1.434354                       # Number of insts commited each cycle (Count)
system.cpu.commit.numCommittedDist::stdev     2.355267                       # Number of insts commited each cycle (Count)
system.cpu.commit.numCommittedDist::underflows            0      0.00%      0.00% # Number of insts commited each cycle (Count)
system.cpu.commit.numCommittedDist::0         2185056     59.18%     59.18% # Number of insts commited each cycle (Count)
system.cpu.commit.numCommittedDist::1          390308     10.57%     69.75% # Number of insts commited each cycle (Count)
system.cpu.commit.numCommittedDist::2          276639      7.49%     77.24% # Number of insts commited each cycle (Count)
system.cpu.commit.numCommittedDist::3          350870      9.50%     86.74% # Number of insts commited each cycle (Count)
system.cpu.commit.numCommittedDist::4           73870      2.00%     88.74% # Number of insts commited each cycle (Count)
system.cpu.commit.numCommittedDist::5           61026      1.65%     90.40% # Number of insts commited each cycle (Count)
system.cpu.commit.numCommittedDist::6           42592      1.15%     91.55% # Number of insts commited each cycle (Count)
system.cpu.commit.numCommittedDist::7           52417      1.42%     92.97% # Number of insts commited each cycle (Count)
system.cpu.commit.numCommittedDist::8          259615      7.03%    100.00% # Number of insts commited each cycle (Count)
system.cpu.commit.numCommittedDist::overflows            0      0.00%    100.00% # Number of insts commited each cycle (Count)
system.cpu.commit.numCommittedDist::min_value            0                       # Number of insts commited each cycle (Count)
system.cpu.commit.numCommittedDist::max_value            8                       # Number of insts commited each cycle (Count)
system.cpu.commit.numCommittedDist::total      3692393                       # Number of insts commited each cycle (Count)
system.cpu.commit.instsCommitted              2849860                       # Number of instructions committed (Count)
system.cpu.commit.opsCommitted                5296197                       # Number of ops (including micro ops) committed (Count)
system.cpu.commit.memRefs                     1192055                       # Number of memory references committed (Count)
system.cpu.commit.loads                        727037                       # Number of loads committed (Count)
system.cpu.commit.amos                              0                       # Number of atomic instructions committed (Count)
system.cpu.commit.membars                        4036                       # Number of memory barriers committed (Count)
system.cpu.commit.branches                     550997                       # Number of branches committed (Count)
system.cpu.commit.vectorInstructions                0                       # Number of committed Vector instructions. (Count)
system.cpu.commit.floating                     157100                       # Number of committed floating point instructions. (Count)
system.cpu.commit.integer                     5135108                       # Number of committed integer instructions. (Count)
system.cpu.commit.functionCalls                 45597                       # Number of function calls committed. (Count)
system.cpu.commit.committedInstType_0::No_OpClass        58512      1.10%      1.10% # Class of committed instruction (Count)
system.cpu.commit.committedInstType_0::IntAlu      3930290     74.21%     75.31% # Class of committed instruction (Count)
system.cpu.commit.committedInstType_0::IntMult         3677      0.07%     75.38% # Class of committed instruction (Count)
system.cpu.commit.committedInstType_0::IntDiv        19071      0.36%     75.74% # Class of committed instruction (Count)
system.cpu.commit.committedInstType_0::FloatAdd        23493      0.44%     76.19% # Class of committed instruction (Count)
system.cpu.commit.committedInstType_0::FloatCmp            0      0.00%     76.19% # Class of committed instruction (Count)
system.cpu.commit.committedInstType_0::FloatCvt           32      0.00%     76.19% # Class of committed instruction (Count)
system.cpu.commit.committedInstType_0::FloatMult            0      0.00%     76.19% # Class of committed instruction (Count)
system.cpu.commit.committedInstType_0::FloatMultAcc            0      0.00%     76.19% # Class of committed instruction (Count)
system.cpu.commit.committedInstType_0::FloatDiv            0      0.00%     76.19% # Class of committed instruction (Count)
system.cpu.commit.committedInstType_0::FloatMisc            0      0.00%     76.19% # Class of committed instruction (Count)
system.cpu.commit.committedInstType_0::FloatSqrt            0      0.00%     76.19% # Class of committed instruction (Count)
system.cpu.commit.committedInstType_0::SimdAdd          340      0.01%     76.19% # Class of committed instruction (Count)
system.cpu.commit.committedInstType_0::SimdAddAcc            0      0.00%     76.19% # Class of committed instruction (Count)
system.cpu.commit.committedInstType_0::SimdAlu        20785      0.39%     76.59% # Class of committed instruction (Count)
system.cpu.commit.committedInstType_0::SimdCmp            0      0.00%     76.59% # Class of committed instruction (Count)
system.cpu.commit.committedInstType_0::SimdCvt        10796      0.20%     76.79% # Class of committed instruction (Count)
system.cpu.commit.committedInstType_0::SimdMisc        24936      0.47%     77.26% # Class of committed instruction (Count)
system.cpu.commit.committedInstType_0::SimdMult            0      0.00%     77.26% # Class of committed instruction (Count)
system.cpu.commit.committedInstType_0::SimdMultAcc            0      0.00%     77.26% # Class of committed instruction (Count)
system.cpu.commit.committedInstType_0::SimdShift          178      0.00%     77.27% # Class of committed instruction (Count)
system.cpu.commit.committedInstType_0::SimdShiftAcc            0      0.00%     77.27% # Class of committed instruction (Count)
system.cpu.commit.committedInstType_0::SimdDiv            0      0.00%     77.27% # Class of committed instruction (Count)
system.cpu.commit.committedInstType_0::SimdSqrt            0      0.00%     77.27% # Class of committed instruction (Count)
system.cpu.commit.committedInstType_0::SimdFloatAdd            0      0.00%     77.27% # Class of committed instruction (Count)
system.cpu.commit.committedInstType_0::SimdFloatAlu            0      0.00%     77.27% # Class of committed instruction (Count)
system.cpu.commit.committedInstType_0::SimdFloatCmp            0      0.00%     77.27% # Class of committed instruction (Count)
system.cpu.commit.committedInstType_0::SimdFloatCvt        12032      0.23%     77.49% # Class of committed instruction (Count)
system.cpu.commit.committedInstType_0::SimdFloatDiv            0      0.00%     77.49% # Class of committed instruction (Count)
system.cpu.commit.committedInstType_0::SimdFloatMisc            0      0.00%     77.49% # Class of committed instruction (Count)
system.cpu.commit.committedInstType_0::SimdFloatMult            0      0.00%     77.49% # Class of committed instruction (Count)
system.cpu.commit.committedInstType_0::SimdFloatMultAcc            0      0.00%     77.49% # Class of committed instruction (Count)
system.cpu.commit.committedInstType_0::SimdFloatSqrt            0      0.00%     77.49% # Class of committed instruction (Count)
system.cpu.commit.committedInstType_0::SimdReduceAdd            0      0.00%     77.49% # Class of committed instruction (Count)
system.cpu.commit.committedInstType_0::SimdReduceAlu            0      0.00%     77.49% # Class of committed instruction (Count)
system.cpu.commit.committedInstType_0::SimdReduceCmp            0      0.00%     77.49% # Class of committed instruction (Count)
system.cpu.commit.committedInstType_0::SimdFloatReduceAdd            0      0.00%     77.49% # Class of committed instruction (Count)
system.cpu.commit.committedInstType_0::SimdFloatReduceCmp            0      0.00%     77.49% # Class of committed instruction (Count)
system.cpu.commit.committedInstType_0::SimdAes            0      0.00%     77.49% # Class of committed instruction (Count)
system.cpu.commit.committedInstType_0::SimdAesMix            0      0.00%     77.49% # Class of committed instruction (Count)
system.cpu.commit.committedInstType_0::SimdSha1Hash            0      0.00%     77.49% # Class of committed instruction (Count)
system.cpu.commit.committedInstType_0::SimdSha1Hash2            0      0.00%     77.49% # Class of committed instruction (Count)
system.cpu.commit.committedInstType_0::SimdSha256Hash            0      0.00%     77.49% # Class of committed instruction (Count)
system.cpu.commit.committedInstType_0::SimdSha256Hash2            0      0.00%     77.49% # Class of committed instruction (Count)
system.cpu.commit.committedInstType_0::SimdShaSigma2            0      0.00%     77.49% # Class of committed instruction (Count)
system.cpu.commit.committedInstType_0::SimdShaSigma3            0      0.00%     77.49% # Class of committed instruction (Count)
system.cpu.commit.committedInstType_0::SimdPredAlu            0      0.00%     77.49% # Class of committed instruction (Count)
system.cpu.commit.committedInstType_0::MemRead       694020     13.10%     90.60% # Class of committed instruction (Count)
system.cpu.commit.committedInstType_0::MemWrite       441864      8.34%     98.94% # Class of committed instruction (Count)
system.cpu.commit.committedInstType_0::FloatMemRead        33017      0.62%     99.56% # Class of committed instruction (Count)
system.cpu.commit.committedInstType_0::FloatMemWrite        23154      0.44%    100.00% # Class of committed instruction (Count)
system.cpu.commit.committedInstType_0::IprAccess            0      0.00%    100.00% # Class of committed instruction (Count)
system.cpu.commit.committedInstType_0::InstPrefetch            0      0.00%    100.00% # Class of committed instruction (Count)
system.cpu.commit.committedInstType_0::total      5296197                       # Class of committed instruction (Count)
system.cpu.commit.commitEligibleSamples        259615                       # number cycles where commit BW limit reached (Cycle)
system.cpu.dcache.demandHits::cpu.data        1106320                       # number of demand (read+write) hits (Count)
system.cpu.dcache.demandHits::total           1106320                       # number of demand (read+write) hits (Count)
system.cpu.dcache.overallHits::cpu.data       1106320                       # number of overall hits (Count)
system.cpu.dcache.overallHits::total          1106320                       # number of overall hits (Count)
system.cpu.dcache.demandMisses::cpu.data         7421                       # number of demand (read+write) misses (Count)
system.cpu.dcache.demandMisses::total            7421                       # number of demand (read+write) misses (Count)
system.cpu.dcache.overallMisses::cpu.data         7421                       # number of overall misses (Count)
system.cpu.dcache.overallMisses::total           7421                       # number of overall misses (Count)
system.cpu.dcache.demandMissLatency::cpu.data    458595500                       # number of demand (read+write) miss ticks (Tick)
system.cpu.dcache.demandMissLatency::total    458595500                       # number of demand (read+write) miss ticks (Tick)
system.cpu.dcache.overallMissLatency::cpu.data    458595500                       # number of overall miss ticks (Tick)
system.cpu.dcache.overallMissLatency::total    458595500                       # number of overall miss ticks (Tick)
system.cpu.dcache.demandAccesses::cpu.data      1113741                       # number of demand (read+write) accesses (Count)
system.cpu.dcache.demandAccesses::total       1113741                       # number of demand (read+write) accesses (Count)
system.cpu.dcache.overallAccesses::cpu.data      1113741                       # number of overall (read+write) accesses (Count)
system.cpu.dcache.overallAccesses::total      1113741                       # number of overall (read+write) accesses (Count)
system.cpu.dcache.demandMissRate::cpu.data     0.006663                       # miss rate for demand accesses (Ratio)
system.cpu.dcache.demandMissRate::total      0.006663                       # miss rate for demand accesses (Ratio)
system.cpu.dcache.overallMissRate::cpu.data     0.006663                       # miss rate for overall accesses (Ratio)
system.cpu.dcache.overallMissRate::total     0.006663                       # miss rate for overall accesses (Ratio)
system.cpu.dcache.demandAvgMissLatency::cpu.data 61796.995014                       # average overall miss latency in ticks ((Tick/Count))
system.cpu.dcache.demandAvgMissLatency::total 61796.995014                       # average overall miss latency in ticks ((Tick/Count))
system.cpu.dcache.overallAvgMissLatency::cpu.data 61796.995014                       # average overall miss latency ((Tick/Count))
system.cpu.dcache.overallAvgMissLatency::total 61796.995014                       # average overall miss latency ((Tick/Count))
system.cpu.dcache.blockedCycles::no_mshrs        15027                       # number of cycles access was blocked (Cycle)
system.cpu.dcache.blockedCycles::no_targets            0                       # number of cycles access was blocked (Cycle)
system.cpu.dcache.blockedCauses::no_mshrs          281                       # number of times access was blocked (Count)
system.cpu.dcache.blockedCauses::no_targets            0                       # number of times access was blocked (Count)
system.cpu.dcache.avgBlocked::no_mshrs      53.476868                       # average number of cycles each access was blocked ((Cycle/Count))
system.cpu.dcache.avgBlocked::no_targets          nan                       # average number of cycles each access was blocked ((Cycle/Count))
system.cpu.dcache.writebacks::writebacks          445                       # number of writebacks (Count)
system.cpu.dcache.writebacks::total               445                       # number of writebacks (Count)
system.cpu.dcache.demandMshrHits::cpu.data         5145                       # number of demand (read+write) MSHR hits (Count)
system.cpu.dcache.demandMshrHits::total          5145                       # number of demand (read+write) MSHR hits (Count)
system.cpu.dcache.overallMshrHits::cpu.data         5145                       # number of overall MSHR hits (Count)
system.cpu.dcache.overallMshrHits::total         5145                       # number of overall MSHR hits (Count)
system.cpu.dcache.demandMshrMisses::cpu.data         2276                       # number of demand (read+write) MSHR misses (Count)
system.cpu.dcache.demandMshrMisses::total         2276                       # number of demand (read+write) MSHR misses (Count)
system.cpu.dcache.overallMshrMisses::cpu.data         2276                       # number of overall MSHR misses (Count)
system.cpu.dcache.overallMshrMisses::total         2276                       # number of overall MSHR misses (Count)
system.cpu.dcache.demandMshrMissLatency::cpu.data    161196500                       # number of demand (read+write) MSHR miss ticks (Tick)
system.cpu.dcache.demandMshrMissLatency::total    161196500                       # number of demand (read+write) MSHR miss ticks (Tick)
system.cpu.dcache.overallMshrMissLatency::cpu.data    161196500                       # number of overall MSHR miss ticks (Tick)
system.cpu.dcache.overallMshrMissLatency::total    161196500                       # number of overall MSHR miss ticks (Tick)
system.cpu.dcache.demandMshrMissRate::cpu.data     0.002044                       # mshr miss ratio for demand accesses (Ratio)
system.cpu.dcache.demandMshrMissRate::total     0.002044                       # mshr miss ratio for demand accesses (Ratio)
system.cpu.dcache.overallMshrMissRate::cpu.data     0.002044                       # mshr miss ratio for overall accesses (Ratio)
system.cpu.dcache.overallMshrMissRate::total     0.002044                       # mshr miss ratio for overall accesses (Ratio)
system.cpu.dcache.demandAvgMshrMissLatency::cpu.data 70824.472759                       # average overall mshr miss latency ((Tick/Count))
system.cpu.dcache.demandAvgMshrMissLatency::total 70824.472759                       # average overall mshr miss latency ((Tick/Count))
system.cpu.dcache.overallAvgMshrMissLatency::cpu.data 70824.472759                       # average overall mshr miss latency ((Tick/Count))
system.cpu.dcache.overallAvgMshrMissLatency::total 70824.472759                       # average overall mshr miss latency ((Tick/Count))
system.cpu.dcache.replacements                   1255                       # number of replacements (Count)
system.cpu.dcache.LockedRMWReadReq.hits::cpu.data         2016                       # number of LockedRMWReadReq hits (Count)
system.cpu.dcache.LockedRMWReadReq.hits::total         2016                       # number of LockedRMWReadReq hits (Count)
system.cpu.dcache.LockedRMWReadReq.misses::cpu.data            2                       # number of LockedRMWReadReq misses (Count)
system.cpu.dcache.LockedRMWReadReq.misses::total            2                       # number of LockedRMWReadReq misses (Count)
system.cpu.dcache.LockedRMWReadReq.missLatency::cpu.data       107500                       # number of LockedRMWReadReq miss ticks (Tick)
system.cpu.dcache.LockedRMWReadReq.missLatency::total       107500                       # number of LockedRMWReadReq miss ticks (Tick)
system.cpu.dcache.LockedRMWReadReq.accesses::cpu.data         2018                       # number of LockedRMWReadReq accesses(hits+misses) (Count)
system.cpu.dcache.LockedRMWReadReq.accesses::total         2018                       # number of LockedRMWReadReq accesses(hits+misses) (Count)
system.cpu.dcache.LockedRMWReadReq.missRate::cpu.data     0.000991                       # miss rate for LockedRMWReadReq accesses (Ratio)
system.cpu.dcache.LockedRMWReadReq.missRate::total     0.000991                       # miss rate for LockedRMWReadReq accesses (Ratio)
system.cpu.dcache.LockedRMWReadReq.avgMissLatency::cpu.data        53750                       # average LockedRMWReadReq miss latency ((Tick/Count))
system.cpu.dcache.LockedRMWReadReq.avgMissLatency::total        53750                       # average LockedRMWReadReq miss latency ((Tick/Count))
system.cpu.dcache.LockedRMWReadReq.mshrMisses::cpu.data            2                       # number of LockedRMWReadReq MSHR misses (Count)
system.cpu.dcache.LockedRMWReadReq.mshrMisses::total            2                       # number of LockedRMWReadReq MSHR misses (Count)
system.cpu.dcache.LockedRMWReadReq.mshrMissLatency::cpu.data      7778500                       # number of LockedRMWReadReq MSHR miss ticks (Tick)
system.cpu.dcache.LockedRMWReadReq.mshrMissLatency::total      7778500                       # number of LockedRMWReadReq MSHR miss ticks (Tick)
system.cpu.dcache.LockedRMWReadReq.mshrMissRate::cpu.data     0.000991                       # mshr miss rate for LockedRMWReadReq accesses (Ratio)
system.cpu.dcache.LockedRMWReadReq.mshrMissRate::total     0.000991                       # mshr miss rate for LockedRMWReadReq accesses (Ratio)
system.cpu.dcache.LockedRMWReadReq.avgMshrMissLatency::cpu.data      3889250                       # average LockedRMWReadReq mshr miss latency ((Tick/Count))
system.cpu.dcache.LockedRMWReadReq.avgMshrMissLatency::total      3889250                       # average LockedRMWReadReq mshr miss latency ((Tick/Count))
system.cpu.dcache.LockedRMWWriteReq.hits::cpu.data         2018                       # number of LockedRMWWriteReq hits (Count)
system.cpu.dcache.LockedRMWWriteReq.hits::total         2018                       # number of LockedRMWWriteReq hits (Count)
system.cpu.dcache.LockedRMWWriteReq.accesses::cpu.data         2018                       # number of LockedRMWWriteReq accesses(hits+misses) (Count)
system.cpu.dcache.LockedRMWWriteReq.accesses::total         2018                       # number of LockedRMWWriteReq accesses(hits+misses) (Count)
system.cpu.dcache.ReadReq.hits::cpu.data       644163                       # number of ReadReq hits (Count)
system.cpu.dcache.ReadReq.hits::total          644163                       # number of ReadReq hits (Count)
system.cpu.dcache.ReadReq.misses::cpu.data         6577                       # number of ReadReq misses (Count)
system.cpu.dcache.ReadReq.misses::total          6577                       # number of ReadReq misses (Count)
system.cpu.dcache.ReadReq.missLatency::cpu.data    397496500                       # number of ReadReq miss ticks (Tick)
system.cpu.dcache.ReadReq.missLatency::total    397496500                       # number of ReadReq miss ticks (Tick)
system.cpu.dcache.ReadReq.accesses::cpu.data       650740                       # number of ReadReq accesses(hits+misses) (Count)
system.cpu.dcache.ReadReq.accesses::total       650740                       # number of ReadReq accesses(hits+misses) (Count)
system.cpu.dcache.ReadReq.missRate::cpu.data     0.010107                       # miss rate for ReadReq accesses (Ratio)
system.cpu.dcache.ReadReq.missRate::total     0.010107                       # miss rate for ReadReq accesses (Ratio)
system.cpu.dcache.ReadReq.avgMissLatency::cpu.data 60437.357458                       # average ReadReq miss latency ((Tick/Count))
system.cpu.dcache.ReadReq.avgMissLatency::total 60437.357458                       # average ReadReq miss latency ((Tick/Count))
system.cpu.dcache.ReadReq.mshrHits::cpu.data         5140                       # number of ReadReq MSHR hits (Count)
system.cpu.dcache.ReadReq.mshrHits::total         5140                       # number of ReadReq MSHR hits (Count)
system.cpu.dcache.ReadReq.mshrMisses::cpu.data         1437                       # number of ReadReq MSHR misses (Count)
system.cpu.dcache.ReadReq.mshrMisses::total         1437                       # number of ReadReq MSHR misses (Count)
system.cpu.dcache.ReadReq.mshrMissLatency::cpu.data    101334500                       # number of ReadReq MSHR miss ticks (Tick)
system.cpu.dcache.ReadReq.mshrMissLatency::total    101334500                       # number of ReadReq MSHR miss ticks (Tick)
system.cpu.dcache.ReadReq.mshrMissRate::cpu.data     0.002208                       # mshr miss rate for ReadReq accesses (Ratio)
system.cpu.dcache.ReadReq.mshrMissRate::total     0.002208                       # mshr miss rate for ReadReq accesses (Ratio)
system.cpu.dcache.ReadReq.avgMshrMissLatency::cpu.data 70518.093250                       # average ReadReq mshr miss latency ((Tick/Count))
system.cpu.dcache.ReadReq.avgMshrMissLatency::total 70518.093250                       # average ReadReq mshr miss latency ((Tick/Count))
system.cpu.dcache.WriteReq.hits::cpu.data       462157                       # number of WriteReq hits (Count)
system.cpu.dcache.WriteReq.hits::total         462157                       # number of WriteReq hits (Count)
system.cpu.dcache.WriteReq.misses::cpu.data          844                       # number of WriteReq misses (Count)
system.cpu.dcache.WriteReq.misses::total          844                       # number of WriteReq misses (Count)
system.cpu.dcache.WriteReq.missLatency::cpu.data     61099000                       # number of WriteReq miss ticks (Tick)
system.cpu.dcache.WriteReq.missLatency::total     61099000                       # number of WriteReq miss ticks (Tick)
system.cpu.dcache.WriteReq.accesses::cpu.data       463001                       # number of WriteReq accesses(hits+misses) (Count)
system.cpu.dcache.WriteReq.accesses::total       463001                       # number of WriteReq accesses(hits+misses) (Count)
system.cpu.dcache.WriteReq.missRate::cpu.data     0.001823                       # miss rate for WriteReq accesses (Ratio)
system.cpu.dcache.WriteReq.missRate::total     0.001823                       # miss rate for WriteReq accesses (Ratio)
system.cpu.dcache.WriteReq.avgMissLatency::cpu.data 72392.180095                       # average WriteReq miss latency ((Tick/Count))
system.cpu.dcache.WriteReq.avgMissLatency::total 72392.180095                       # average WriteReq miss latency ((Tick/Count))
system.cpu.dcache.WriteReq.mshrHits::cpu.data            5                       # number of WriteReq MSHR hits (Count)
system.cpu.dcache.WriteReq.mshrHits::total            5                       # number of WriteReq MSHR hits (Count)
system.cpu.dcache.WriteReq.mshrMisses::cpu.data          839                       # number of WriteReq MSHR misses (Count)
system.cpu.dcache.WriteReq.mshrMisses::total          839                       # number of WriteReq MSHR misses (Count)
system.cpu.dcache.WriteReq.mshrMissLatency::cpu.data     59862000                       # number of WriteReq MSHR miss ticks (Tick)
system.cpu.dcache.WriteReq.mshrMissLatency::total     59862000                       # number of WriteReq MSHR miss ticks (Tick)
system.cpu.dcache.WriteReq.mshrMissRate::cpu.data     0.001812                       # mshr miss rate for WriteReq accesses (Ratio)
system.cpu.dcache.WriteReq.mshrMissRate::total     0.001812                       # mshr miss rate for WriteReq accesses (Ratio)
system.cpu.dcache.WriteReq.avgMshrMissLatency::cpu.data 71349.225268                       # average WriteReq mshr miss latency ((Tick/Count))
system.cpu.dcache.WriteReq.avgMshrMissLatency::total 71349.225268                       # average WriteReq mshr miss latency ((Tick/Count))
system.cpu.dcache.power_state.pwrStateResidencyTicks::UNDEFINED   1989696500                       # Cumulative time (in ticks) in various power states (Tick)
system.cpu.dcache.tags.tagsInUse           996.239262                       # Average ticks per tags in use ((Tick/Count))
system.cpu.dcache.tags.totalRefs              1112632                       # Total number of references to valid blocks. (Count)
system.cpu.dcache.tags.sampledRefs               2278                       # Sample count of references to valid blocks. (Count)
system.cpu.dcache.tags.avgRefs             488.424934                       # Average number of references to valid blocks. ((Count/Count))
system.cpu.dcache.tags.warmupTick              168000                       # The tick when the warmup percentage was hit. (Tick)
system.cpu.dcache.tags.occupancies::cpu.data   996.239262                       # Average occupied blocks per tick, per requestor ((Count/Tick))
system.cpu.dcache.tags.avgOccs::cpu.data     0.972890                       # Average percentage of cache occupancy ((Ratio/Tick))
system.cpu.dcache.tags.avgOccs::total        0.972890                       # Average percentage of cache occupancy ((Ratio/Tick))
system.cpu.dcache.tags.occupanciesTaskId::1024         1023                       # Occupied blocks per task id (Count)
system.cpu.dcache.tags.ageTaskId_1024::0           19                       # Occupied blocks per task id, per block age (Count)
system.cpu.dcache.tags.ageTaskId_1024::2           54                       # Occupied blocks per task id, per block age (Count)
system.cpu.dcache.tags.ageTaskId_1024::3          950                       # Occupied blocks per task id, per block age (Count)
system.cpu.dcache.tags.ratioOccsTaskId::1024     0.999023                       # Ratio of occupied blocks and all blocks, per task id (Ratio)
system.cpu.dcache.tags.tagAccesses            4473386                       # Number of tag accesses (Count)
system.cpu.dcache.tags.dataAccesses           4473386                       # Number of data accesses (Count)
system.cpu.dcache.tags.power_state.pwrStateResidencyTicks::UNDEFINED   1989696500                       # Cumulative time (in ticks) in various power states (Tick)
system.cpu.decode.idleCycles                  2571752                       # Number of cycles decode is idle (Cycle)
system.cpu.decode.blockedCycles                213575                       # Number of cycles decode is blocked (Cycle)
system.cpu.decode.runCycles                    924194                       # Number of cycles decode is running (Cycle)
system.cpu.decode.unblockCycles                 27326                       # Number of cycles decode is unblocking (Cycle)
system.cpu.decode.squashCycles                  11701                       # Number of cycles decode is squashing (Cycle)
system.cpu.decode.branchResolved               295534                       # Number of times decode resolved a branch (Count)
system.cpu.decode.branchMispred                  1266                       # Number of times decode detected a branch misprediction (Count)
system.cpu.decode.decodedInsts                5801618                       # Number of instructions handled by decode (Count)
system.cpu.decode.squashedInsts                  7594                       # Number of squashed instructions handled by decode (Count)
system.cpu.fetch.icacheStallCycles            2583857                       # Number of cycles fetch is stalled on an Icache miss (Cycle)
system.cpu.fetch.insts                        3189158                       # Number of instructions fetch has processed (Count)
system.cpu.fetch.branches                      615616                       # Number of branches that fetch encountered (Count)
system.cpu.fetch.predictedBranches             359994                       # Number of branches that fetch has predicted taken (Count)
system.cpu.fetch.cycles                       1149036                       # Number of cycles fetch has run and was not squashing or blocked (Cycle)
system.cpu.fetch.squashCycles                   25890                       # Number of cycles fetch has spent squashing (Cycle)
system.cpu.fetch.miscStallCycles                  322                       # Number of cycles fetch has spent waiting on interrupts, or bad addresses, or out of MSHRs (Cycle)
system.cpu.fetch.pendingTrapStallCycles          2388                       # Number of stall cycles due to pending traps (Cycle)
system.cpu.fetch.cacheLines                    413733                       # Number of cache lines fetched (Count)
system.cpu.fetch.icacheSquashes                  4776                       # Number of outstanding Icache misses that were squashed (Count)
system.cpu.fetch.nisnDist::samples            3748548                       # Number of instructions fetched each cycle (Total) (Count)
system.cpu.fetch.nisnDist::mean              1.572228                       # Number of instructions fetched each cycle (Total) (Count)
system.cpu.fetch.nisnDist::stdev             2.936462                       # Number of instructions fetched each cycle (Total) (Count)
system.cpu.fetch.nisnDist::underflows               0      0.00%      0.00% # Number of instructions fetched each cycle (Total) (Count)
system.cpu.fetch.nisnDist::0                  2771654     73.94%     73.94% # Number of instructions fetched each cycle (Total) (Count)
system.cpu.fetch.nisnDist::1                    80476      2.15%     76.09% # Number of instructions fetched each cycle (Total) (Count)
system.cpu.fetch.nisnDist::2                    70944      1.89%     77.98% # Number of instructions fetched each cycle (Total) (Count)
system.cpu.fetch.nisnDist::3                    49059      1.31%     79.29% # Number of instructions fetched each cycle (Total) (Count)
system.cpu.fetch.nisnDist::4                    63555      1.70%     80.98% # Number of instructions fetched each cycle (Total) (Count)
system.cpu.fetch.nisnDist::5                    84103      2.24%     83.23% # Number of instructions fetched each cycle (Total) (Count)
system.cpu.fetch.nisnDist::6                    67378      1.80%     85.02% # Number of instructions fetched each cycle (Total) (Count)
system.cpu.fetch.nisnDist::7                    46004      1.23%     86.25% # Number of instructions fetched each cycle (Total) (Count)
system.cpu.fetch.nisnDist::8                   515375     13.75%    100.00% # Number of instructions fetched each cycle (Total) (Count)
system.cpu.fetch.nisnDist::overflows                0      0.00%    100.00% # Number of instructions fetched each cycle (Total) (Count)
system.cpu.fetch.nisnDist::min_value                0                       # Number of instructions fetched each cycle (Total) (Count)
system.cpu.fetch.nisnDist::max_value                8                       # Number of instructions fetched each cycle (Total) (Count)
system.cpu.fetch.nisnDist::total              3748548                       # Number of instructions fetched each cycle (Total) (Count)
system.cpu.fetch.branchRate                  0.154701                       # Number of branch fetches per cycle (Ratio)
system.cpu.fetch.rate                        0.801418                       # Number of inst fetches per cycle ((Count/Cycle))
system.cpu.icache.demandHits::cpu.inst         316481                       # number of demand (read+write) hits (Count)
system.cpu.icache.demandHits::total            316481                       # number of demand (read+write) hits (Count)
system.cpu.icache.overallHits::cpu.inst        316481                       # number of overall hits (Count)
system.cpu.icache.overallHits::total           316481                       # number of overall hits (Count)
system.cpu.icache.demandMisses::cpu.inst        97252                       # number of demand (read+write) misses (Count)
system.cpu.icache.demandMisses::total           97252                       # number of demand (read+write) misses (Count)
system.cpu.icache.overallMisses::cpu.inst        97252                       # number of overall misses (Count)
system.cpu.icache.overallMisses::total          97252                       # number of overall misses (Count)
system.cpu.icache.demandMissLatency::cpu.inst   1384751500                       # number of demand (read+write) miss ticks (Tick)
system.cpu.icache.demandMissLatency::total   1384751500                       # number of demand (read+write) miss ticks (Tick)
system.cpu.icache.overallMissLatency::cpu.inst   1384751500                       # number of overall miss ticks (Tick)
system.cpu.icache.overallMissLatency::total   1384751500                       # number of overall miss ticks (Tick)
system.cpu.icache.demandAccesses::cpu.inst       413733                       # number of demand (read+write) accesses (Count)
system.cpu.icache.demandAccesses::total        413733                       # number of demand (read+write) accesses (Count)
system.cpu.icache.overallAccesses::cpu.inst       413733                       # number of overall (read+write) accesses (Count)
system.cpu.icache.overallAccesses::total       413733                       # number of overall (read+write) accesses (Count)
system.cpu.icache.demandMissRate::cpu.inst     0.235060                       # miss rate for demand accesses (Ratio)
system.cpu.icache.demandMissRate::total      0.235060                       # miss rate for demand accesses (Ratio)
system.cpu.icache.overallMissRate::cpu.inst     0.235060                       # miss rate for overall accesses (Ratio)
system.cpu.icache.overallMissRate::total     0.235060                       # miss rate for overall accesses (Ratio)
system.cpu.icache.demandAvgMissLatency::cpu.inst 14238.797146                       # average overall miss latency in ticks ((Tick/Count))
system.cpu.icache.demandAvgMissLatency::total 14238.797146                       # average overall miss latency in ticks ((Tick/Count))
system.cpu.icache.overallAvgMissLatency::cpu.inst 14238.797146                       # average overall miss latency ((Tick/Count))
system.cpu.icache.overallAvgMissLatency::total 14238.797146                       # average overall miss latency ((Tick/Count))
system.cpu.icache.blockedCycles::no_mshrs          247                       # number of cycles access was blocked (Cycle)
system.cpu.icache.blockedCycles::no_targets            0                       # number of cycles access was blocked (Cycle)
system.cpu.icache.blockedCauses::no_mshrs            4                       # number of times access was blocked (Count)
system.cpu.icache.blockedCauses::no_targets            0                       # number of times access was blocked (Count)
system.cpu.icache.avgBlocked::no_mshrs      61.750000                       # average number of cycles each access was blocked ((Cycle/Count))
system.cpu.icache.avgBlocked::no_targets          nan                       # average number of cycles each access was blocked ((Cycle/Count))
system.cpu.icache.demandMshrHits::cpu.inst          857                       # number of demand (read+write) MSHR hits (Count)
system.cpu.icache.demandMshrHits::total           857                       # number of demand (read+write) MSHR hits (Count)
system.cpu.icache.overallMshrHits::cpu.inst          857                       # number of overall MSHR hits (Count)
system.cpu.icache.overallMshrHits::total          857                       # number of overall MSHR hits (Count)
system.cpu.icache.demandMshrMisses::cpu.inst        96395                       # number of demand (read+write) MSHR misses (Count)
system.cpu.icache.demandMshrMisses::total        96395                       # number of demand (read+write) MSHR misses (Count)
system.cpu.icache.overallMshrMisses::cpu.inst        96395                       # number of overall MSHR misses (Count)
system.cpu.icache.overallMshrMisses::total        96395                       # number of overall MSHR misses (Count)
system.cpu.icache.demandMshrMissLatency::cpu.inst   1249049500                       # number of demand (read+write) MSHR miss ticks (Tick)
system.cpu.icache.demandMshrMissLatency::total   1249049500                       # number of demand (read+write) MSHR miss ticks (Tick)
system.cpu.icache.overallMshrMissLatency::cpu.inst   1249049500                       # number of overall MSHR miss ticks (Tick)
system.cpu.icache.overallMshrMissLatency::total   1249049500                       # number of overall MSHR miss ticks (Tick)
system.cpu.icache.demandMshrMissRate::cpu.inst     0.232988                       # mshr miss ratio for demand accesses (Ratio)
system.cpu.icache.demandMshrMissRate::total     0.232988                       # mshr miss ratio for demand accesses (Ratio)
system.cpu.icache.overallMshrMissRate::cpu.inst     0.232988                       # mshr miss ratio for overall accesses (Ratio)
system.cpu.icache.overallMshrMissRate::total     0.232988                       # mshr miss ratio for overall accesses (Ratio)
system.cpu.icache.demandAvgMshrMissLatency::cpu.inst 12957.617096                       # average overall mshr miss latency ((Tick/Count))
system.cpu.icache.demandAvgMshrMissLatency::total 12957.617096                       # average overall mshr miss latency ((Tick/Count))
system.cpu.icache.overallAvgMshrMissLatency::cpu.inst 12957.617096                       # average overall mshr miss latency ((Tick/Count))
system.cpu.icache.overallAvgMshrMissLatency::total 12957.617096                       # average overall mshr miss latency ((Tick/Count))
system.cpu.icache.replacements                  96266                       # number of replacements (Count)
system.cpu.icache.ReadReq.hits::cpu.inst       316481                       # number of ReadReq hits (Count)
system.cpu.icache.ReadReq.hits::total          316481                       # number of ReadReq hits (Count)
system.cpu.icache.ReadReq.misses::cpu.inst        97252                       # number of ReadReq misses (Count)
system.cpu.icache.ReadReq.misses::total         97252                       # number of ReadReq misses (Count)
system.cpu.icache.ReadReq.missLatency::cpu.inst   1384751500                       # number of ReadReq miss ticks (Tick)
system.cpu.icache.ReadReq.missLatency::total   1384751500                       # number of ReadReq miss ticks (Tick)
system.cpu.icache.ReadReq.accesses::cpu.inst       413733                       # number of ReadReq accesses(hits+misses) (Count)
system.cpu.icache.ReadReq.accesses::total       413733                       # number of ReadReq accesses(hits+misses) (Count)
system.cpu.icache.ReadReq.missRate::cpu.inst     0.235060                       # miss rate for ReadReq accesses (Ratio)
system.cpu.icache.ReadReq.missRate::total     0.235060                       # miss rate for ReadReq accesses (Ratio)
system.cpu.icache.ReadReq.avgMissLatency::cpu.inst 14238.797146                       # average ReadReq miss latency ((Tick/Count))
system.cpu.icache.ReadReq.avgMissLatency::total 14238.797146                       # average ReadReq miss latency ((Tick/Count))
system.cpu.icache.ReadReq.mshrHits::cpu.inst          857                       # number of ReadReq MSHR hits (Count)
system.cpu.icache.ReadReq.mshrHits::total          857                       # number of ReadReq MSHR hits (Count)
system.cpu.icache.ReadReq.mshrMisses::cpu.inst        96395                       # number of ReadReq MSHR misses (Count)
system.cpu.icache.ReadReq.mshrMisses::total        96395                       # number of ReadReq MSHR misses (Count)
system.cpu.icache.ReadReq.mshrMissLatency::cpu.inst   1249049500                       # number of ReadReq MSHR miss ticks (Tick)
system.cpu.icache.ReadReq.mshrMissLatency::total   1249049500                       # number of ReadReq MSHR miss ticks (Tick)
system.cpu.icache.ReadReq.mshrMissRate::cpu.inst     0.232988                       # mshr miss rate for ReadReq accesses (Ratio)
system.cpu.icache.ReadReq.mshrMissRate::total     0.232988                       # mshr miss rate for ReadReq accesses (Ratio)
system.cpu.icache.ReadReq.avgMshrMissLatency::cpu.inst 12957.617096                       # average ReadReq mshr miss latency ((Tick/Count))
system.cpu.icache.ReadReq.avgMshrMissLatency::total 12957.617096                       # average ReadReq mshr miss latency ((Tick/Count))
system.cpu.icache.power_state.pwrStateResidencyTicks::UNDEFINED   1989696500                       # Cumulative time (in ticks) in various power states (Tick)
system.cpu.icache.tags.tagsInUse           127.553037                       # Average ticks per tags in use ((Tick/Count))
system.cpu.icache.tags.totalRefs               412875                       # Total number of references to valid blocks. (Count)
system.cpu.icache.tags.sampledRefs              96394                       # Sample count of references to valid blocks. (Count)
system.cpu.icache.tags.avgRefs               4.283202                       # Average number of references to valid blocks. ((Count/Count))
system.cpu.icache.tags.warmupTick               82000                       # The tick when the warmup percentage was hit. (Tick)
system.cpu.icache.tags.occupancies::cpu.inst   127.553037                       # Average occupied blocks per tick, per requestor ((Count/Tick))
system.cpu.icache.tags.avgOccs::cpu.inst     0.996508                       # Average percentage of cache occupancy ((Ratio/Tick))
system.cpu.icache.tags.avgOccs::total        0.996508                       # Average percentage of cache occupancy ((Ratio/Tick))
system.cpu.icache.tags.occupanciesTaskId::1024          128                       # Occupied blocks per task id (Count)
system.cpu.icache.tags.ageTaskId_1024::0          115                       # Occupied blocks per task id, per block age (Count)
system.cpu.icache.tags.ageTaskId_1024::2            3                       # Occupied blocks per task id, per block age (Count)
system.cpu.icache.tags.ageTaskId_1024::3           10                       # Occupied blocks per task id, per block age (Count)
system.cpu.icache.tags.ratioOccsTaskId::1024            1                       # Ratio of occupied blocks and all blocks, per task id (Ratio)
system.cpu.icache.tags.tagAccesses            1751326                       # Number of tag accesses (Count)
system.cpu.icache.tags.dataAccesses           1751326                       # Number of data accesses (Count)
system.cpu.icache.tags.power_state.pwrStateResidencyTicks::UNDEFINED   1989696500                       # Cumulative time (in ticks) in various power states (Tick)
system.cpu.iew.idleCycles                           0                       # Number of cycles IEW is idle (Cycle)
system.cpu.iew.squashCycles                     11701                       # Number of cycles IEW is squashing (Cycle)
system.cpu.iew.blockCycles                      65148                       # Number of cycles IEW is blocking (Cycle)
system.cpu.iew.unblockCycles                     1681                       # Number of cycles IEW is unblocking (Cycle)
system.cpu.iew.dispatchedInsts                5687583                       # Number of instructions dispatched to IQ (Count)
system.cpu.iew.dispSquashedInsts                  344                       # Number of squashed instructions skipped by dispatch (Count)
system.cpu.iew.dispLoadInsts                   782898                       # Number of dispatched load instructions (Count)
system.cpu.iew.dispStoreInsts                  491224                       # Number of dispatched store instructions (Count)
system.cpu.iew.dispNonSpecInsts                  2063                       # Number of dispatched non-speculative instructions (Count)
system.cpu.iew.iqFullEvents                       186                       # Number of times the IQ has become full, causing a stall (Count)
system.cpu.iew.lsqFullEvents                     1392                       # Number of times the LSQ has become full, causing a stall (Count)
system.cpu.iew.memOrderViolationEvents            203                       # Number of memory order violations (Count)
system.cpu.iew.predictedTakenIncorrect           2238                       # Number of branches that were predicted taken incorrectly (Count)
system.cpu.iew.predictedNotTakenIncorrect        10638                       # Number of branches that were predicted not taken incorrectly (Count)
system.cpu.iew.branchMispredicts                12876                       # Number of branch mispredicts detected at execute (Count)
system.cpu.iew.instsToCommit                  5543793                       # Cumulative count of insts sent to commit (Count)
system.cpu.iew.writebackCount                 5539888                       # Cumulative count of insts written-back (Count)
system.cpu.iew.producerInst                   3771826                       # Number of instructions producing a value (Count)
system.cpu.iew.consumerInst                   6077087                       # Number of instructions consuming a value (Count)
system.cpu.iew.wbRate                        1.392144                       # Insts written-back per cycle ((Count/Cycle))
system.cpu.iew.wbFanout                      0.620663                       # Average fanout of values written-back ((Count/Count))
system.cpu.interrupts.clk_domain.clock           8000                       # Clock period in ticks (Tick)
system.cpu.lsq0.forwLoads                      112039                       # Number of loads that had data forwarded from stores (Count)
system.cpu.lsq0.squashedLoads                   55861                       # Number of loads squashed (Count)
system.cpu.lsq0.ignoredResponses                   32                       # Number of memory responses ignored because the instruction is squashed (Count)
system.cpu.lsq0.memOrderViolation                 203                       # Number of memory ordering violations (Count)
system.cpu.lsq0.squashedStores                  26206                       # Number of stores squashed (Count)
system.cpu.lsq0.rescheduledLoads                 6047                       # Number of loads that were rescheduled (Count)
system.cpu.lsq0.blockedByCache                    139                       # Number of times an access to memory failed due to the cache being blocked (Count)
system.cpu.lsq0.loadToUse::samples             727037                       # Distribution of cycle latency between the first time a load is issued and its completion (Unspecified)
system.cpu.lsq0.loadToUse::mean              4.285400                       # Distribution of cycle latency between the first time a load is issued and its completion (Unspecified)
system.cpu.lsq0.loadToUse::stdev            14.511931                       # Distribution of cycle latency between the first time a load is issued and its completion (Unspecified)
system.cpu.lsq0.loadToUse::0-9                 720432     99.09%     99.09% # Distribution of cycle latency between the first time a load is issued and its completion (Unspecified)
system.cpu.lsq0.loadToUse::10-19                  280      0.04%     99.13% # Distribution of cycle latency between the first time a load is issued and its completion (Unspecified)
system.cpu.lsq0.loadToUse::20-29                  352      0.05%     99.18% # Distribution of cycle latency between the first time a load is issued and its completion (Unspecified)
system.cpu.lsq0.loadToUse::30-39                   74      0.01%     99.19% # Distribution of cycle latency between the first time a load is issued and its completion (Unspecified)
system.cpu.lsq0.loadToUse::40-49                   51      0.01%     99.20% # Distribution of cycle latency between the first time a load is issued and its completion (Unspecified)
system.cpu.lsq0.loadToUse::50-59                   32      0.00%     99.20% # Distribution of cycle latency between the first time a load is issued and its completion (Unspecified)
system.cpu.lsq0.loadToUse::60-69                  132      0.02%     99.22% # Distribution of cycle latency between the first time a load is issued and its completion (Unspecified)
system.cpu.lsq0.loadToUse::70-79                  443      0.06%     99.28% # Distribution of cycle latency between the first time a load is issued and its completion (Unspecified)
system.cpu.lsq0.loadToUse::80-89                  120      0.02%     99.30% # Distribution of cycle latency between the first time a load is issued and its completion (Unspecified)
system.cpu.lsq0.loadToUse::90-99                   63      0.01%     99.30% # Distribution of cycle latency between the first time a load is issued and its completion (Unspecified)
system.cpu.lsq0.loadToUse::100-109                 57      0.01%     99.31% # Distribution of cycle latency between the first time a load is issued and its completion (Unspecified)
system.cpu.lsq0.loadToUse::110-119                176      0.02%     99.34% # Distribution of cycle latency between the first time a load is issued and its completion (Unspecified)
system.cpu.lsq0.loadToUse::120-129                584      0.08%     99.42% # Distribution of cycle latency between the first time a load is issued and its completion (Unspecified)
system.cpu.lsq0.loadToUse::130-139               2026      0.28%     99.70% # Distribution of cycle latency between the first time a load is issued and its completion (Unspecified)
[...]
system.mem_ctrl.dram.bytesWritten::total          896                       # Number of bytes written to this memory (Byte)
system.mem_ctrl.dram.numReads::cpu.inst          1514                       # Number of read requests responded to by this memory (Count)
system.mem_ctrl.dram.numReads::cpu.data          2098                       # Number of read requests responded to by this memory (Count)
system.mem_ctrl.dram.numReads::total             3612                       # Number of read requests responded to by this memory (Count)
system.mem_ctrl.dram.numWrites::writebacks           14                       # Number of write requests responded to by this memory (Count)
system.mem_ctrl.dram.numWrites::total              14                       # Number of write requests responded to by this memory (Count)
system.mem_ctrl.dram.bwRead::cpu.inst        48698884                       # Total read bandwidth from this memory ((Byte/Second))
system.mem_ctrl.dram.bwRead::cpu.data        67483659                       # Total read bandwidth from this memory ((Byte/Second))
system.mem_ctrl.dram.bwRead::total          116182543                       # Total read bandwidth from this memory ((Byte/Second))
system.mem_ctrl.dram.bwInstRead::cpu.inst     48698884                       # Instruction read bandwidth from this memory ((Byte/Second))
system.mem_ctrl.dram.bwInstRead::total       48698884                       # Instruction read bandwidth from this memory ((Byte/Second))
system.mem_ctrl.dram.bwWrite::writebacks       450320                       # Write bandwidth from this memory ((Byte/Second))
system.mem_ctrl.dram.bwWrite::total            450320                       # Write bandwidth from this memory ((Byte/Second))
system.mem_ctrl.dram.bwTotal::writebacks       450320                       # Total bandwidth to/from this memory ((Byte/Second))
system.mem_ctrl.dram.bwTotal::cpu.inst       48698884                       # Total bandwidth to/from this memory ((Byte/Second))
system.mem_ctrl.dram.bwTotal::cpu.data       67483659                       # Total bandwidth to/from this memory ((Byte/Second))
system.mem_ctrl.dram.bwTotal::total         116632863                       # Total bandwidth to/from this memory ((Byte/Second))
system.mem_ctrl.dram.readBursts                  3611                       # Number of DRAM read bursts (Count)
system.mem_ctrl.dram.writeBursts                    0                       # Number of DRAM write bursts (Count)
system.mem_ctrl.dram.perBankRdBursts::0           385                       # Per bank write bursts (Count)
system.mem_ctrl.dram.perBankRdBursts::1           219                       # Per bank write bursts (Count)
system.mem_ctrl.dram.perBankRdBursts::2           275                       # Per bank write bursts (Count)
system.mem_ctrl.dram.perBankRdBursts::3           215                       # Per bank write bursts (Count)
system.mem_ctrl.dram.perBankRdBursts::4           197                       # Per bank write bursts (Count)
system.mem_ctrl.dram.perBankRdBursts::5           103                       # Per bank write bursts (Count)
system.mem_ctrl.dram.perBankRdBursts::6           152                       # Per bank write bursts (Count)
system.mem_ctrl.dram.perBankRdBursts::7           153                       # Per bank write bursts (Count)
system.mem_ctrl.dram.perBankRdBursts::8           293                       # Per bank write bursts (Count)
system.mem_ctrl.dram.perBankRdBursts::9           273                       # Per bank write bursts (Count)
system.mem_ctrl.dram.perBankRdBursts::10          169                       # Per bank write bursts (Count)
system.mem_ctrl.dram.perBankRdBursts::11          235                       # Per bank write bursts (Count)
system.mem_ctrl.dram.perBankRdBursts::12          138                       # Per bank write bursts (Count)
system.mem_ctrl.dram.perBankRdBursts::13          223                       # Per bank write bursts (Count)
system.mem_ctrl.dram.perBankRdBursts::14          249                       # Per bank write bursts (Count)
system.mem_ctrl.dram.perBankRdBursts::15          332                       # Per bank write bursts (Count)
system.mem_ctrl.dram.perBankWrBursts::0             0                       # Per bank write bursts (Count)
system.mem_ctrl.dram.perBankWrBursts::1             0                       # Per bank write bursts (Count)
system.mem_ctrl.dram.perBankWrBursts::2             0                       # Per bank write bursts (Count)
system.mem_ctrl.dram.perBankWrBursts::3             0                       # Per bank write bursts (Count)
system.mem_ctrl.dram.perBankWrBursts::4             0                       # Per bank write bursts (Count)
system.mem_ctrl.dram.perBankWrBursts::5             0                       # Per bank write bursts (Count)
system.mem_ctrl.dram.perBankWrBursts::6             0                       # Per bank write bursts (Count)
system.mem_ctrl.dram.perBankWrBursts::7             0                       # Per bank write bursts (Count)
system.mem_ctrl.dram.perBankWrBursts::8             0                       # Per bank write bursts (Count)
system.mem_ctrl.dram.perBankWrBursts::9             0                       # Per bank write bursts (Count)
system.mem_ctrl.dram.perBankWrBursts::10            0                       # Per bank write bursts (Count)
system.mem_ctrl.dram.perBankWrBursts::11            0                       # Per bank write bursts (Count)
system.mem_ctrl.dram.perBankWrBursts::12            0                       # Per bank write bursts (Count)
system.mem_ctrl.dram.perBankWrBursts::13            0                       # Per bank write bursts (Count)
system.mem_ctrl.dram.perBankWrBursts::14            0                       # Per bank write bursts (Count)
system.mem_ctrl.dram.perBankWrBursts::15            0                       # Per bank write bursts (Count)
system.mem_ctrl.dram.totQLat                 31369250                       # Total ticks spent queuing (Tick)
system.mem_ctrl.dram.totBusLat               18055000                       # Total ticks spent in databus transfers (Tick)
system.mem_ctrl.dram.totMemAccLat            99075500                       # Total ticks spent from burst creation until serviced by the DRAM (Tick)
system.mem_ctrl.dram.avgQLat                  8687.14                       # Average queueing delay per DRAM burst ((Tick/Count))
system.mem_ctrl.dram.avgBusLat                5000.00                       # Average bus latency per DRAM burst ((Tick/Count))
system.mem_ctrl.dram.avgMemAccLat            27437.14                       # Average memory access latency per DRAM burst ((Tick/Count))
system.mem_ctrl.dram.readRowHits                 2835                       # Number of row buffer hits during reads (Count)
system.mem_ctrl.dram.writeRowHits                   0                       # Number of row buffer hits during writes (Count)
system.mem_ctrl.dram.readRowHitRate             78.51                       # Row buffer hit rate for reads (Ratio)
system.mem_ctrl.dram.writeRowHitRate              nan                       # Row buffer hit rate for writes (Ratio)
system.mem_ctrl.dram.bytesPerActivate::samples          768                       # Bytes accessed per row activation (Byte)
system.mem_ctrl.dram.bytesPerActivate::mean   297.666667                       # Bytes accessed per row activation (Byte)
system.mem_ctrl.dram.bytesPerActivate::gmean   173.875395                       # Bytes accessed per row activation (Byte)
system.mem_ctrl.dram.bytesPerActivate::stdev   325.111544                       # Bytes accessed per row activation (Byte)
system.mem_ctrl.dram.bytesPerActivate::0-127          307     39.97%     39.97% # Bytes accessed per row activation (Byte)
system.mem_ctrl.dram.bytesPerActivate::128-255          179     23.31%     63.28% # Bytes accessed per row activation (Byte)
system.mem_ctrl.dram.bytesPerActivate::256-383           72      9.38%     72.66% # Bytes accessed per row activation (Byte)
system.mem_ctrl.dram.bytesPerActivate::384-511           48      6.25%     78.91% # Bytes accessed per row activation (Byte)
system.mem_ctrl.dram.bytesPerActivate::512-639           32      4.17%     83.07% # Bytes accessed per row activation (Byte)
system.mem_ctrl.dram.bytesPerActivate::640-767           11      1.43%     84.51% # Bytes accessed per row activation (Byte)
system.mem_ctrl.dram.bytesPerActivate::768-895           20      2.60%     87.11% # Bytes accessed per row activation (Byte)
system.mem_ctrl.dram.bytesPerActivate::896-1023            7      0.91%     88.02% # Bytes accessed per row activation (Byte)
system.mem_ctrl.dram.bytesPerActivate::1024-1151           92     11.98%    100.00% # Bytes accessed per row activation (Byte)
system.mem_ctrl.dram.bytesPerActivate::total          768                       # Bytes accessed per row activation (Byte)
system.mem_ctrl.dram.bytesRead                 231104                       # Total bytes read (Byte)
system.mem_ctrl.dram.bytesWritten                   0                       # Total bytes written (Byte)
system.mem_ctrl.dram.avgRdBW               116.150378                       # Average DRAM read bandwidth in MiBytes/s ((Byte/Second))
system.mem_ctrl.dram.avgWrBW                        0                       # Average DRAM write bandwidth in MiBytes/s ((Byte/Second))
system.mem_ctrl.dram.peakBW                  12800.00                       # Theoretical peak bandwidth in MiByte/s ((Byte/Second))
system.mem_ctrl.dram.busUtil                     0.91                       # Data bus utilization in percentage (Ratio)
system.mem_ctrl.dram.busUtilRead                 0.91                       # Data bus utilization in percentage for reads (Ratio)
system.mem_ctrl.dram.busUtilWrite                0.00                       # Data bus utilization in percentage for writes (Ratio)
system.mem_ctrl.dram.pageHitRate                78.51                       # Row buffer hit rate, read and write combined (Ratio)
system.mem_ctrl.dram.power_state.pwrStateResidencyTicks::UNDEFINED   1989696500                       # Cumulative time (in ticks) in various power states (Tick)
system.mem_ctrl.dram.rank0.actEnergy          2370480                       # Energy for activate commands per rank (pJ) (Joule)
system.mem_ctrl.dram.rank0.preEnergy          1244760                       # Energy for precharge commands per rank (pJ) (Joule)
system.mem_ctrl.dram.rank0.readEnergy        12130860                       # Energy for read commands per rank (pJ) (Joule)
system.mem_ctrl.dram.rank0.writeEnergy              0                       # Energy for write commands per rank (pJ) (Joule)
system.mem_ctrl.dram.rank0.refreshEnergy 156733200.000000                       # Energy for refresh commands per rank (pJ) (Joule)
system.mem_ctrl.dram.rank0.actBackEnergy    117367560                       # Energy for active background per rank (pJ) (Joule)
system.mem_ctrl.dram.rank0.preBackEnergy    665208000                       # Energy for precharge background per rank (pJ) (Joule)
system.mem_ctrl.dram.rank0.actPowerDownEnergy            0                       # Energy for active power-down per rank (pJ) (Joule)
system.mem_ctrl.dram.rank0.prePowerDownEnergy            0                       # Energy for precharge power-down per rank (pJ) (Joule)
system.mem_ctrl.dram.rank0.selfRefreshEnergy            0                       # Energy for self refresh per rank (pJ) (Joule)
system.mem_ctrl.dram.rank0.totalEnergy      955054860                       # Total energy per rank (pJ) (Joule)
system.mem_ctrl.dram.rank0.averagePower    480.000271                       # Core power per rank (mW) (Watt)
system.mem_ctrl.dram.rank0.totalIdleTime            0                       # Total Idle time Per DRAM Rank (Tick)
system.mem_ctrl.dram.rank0.pwrStateTime::IDLE   1728121000                       # Time in different power states (Tick)
system.mem_ctrl.dram.rank0.pwrStateTime::REF     66300000                       # Time in different power states (Tick)
system.mem_ctrl.dram.rank0.pwrStateTime::SREF            0                       # Time in different power states (Tick)
system.mem_ctrl.dram.rank0.pwrStateTime::PRE_PDN            0                       # Time in different power states (Tick)
system.mem_ctrl.dram.rank0.pwrStateTime::ACT    195275500                       # Time in different power states (Tick)
system.mem_ctrl.dram.rank0.pwrStateTime::ACT_PDN            0                       # Time in different power states (Tick)
system.mem_ctrl.dram.rank1.actEnergy          3170160                       # Energy for activate commands per rank (pJ) (Joule)
system.mem_ctrl.dram.rank1.preEnergy          1669800                       # Energy for precharge commands per rank (pJ) (Joule)
system.mem_ctrl.dram.rank1.readEnergy        13651680                       # Energy for read commands per rank (pJ) (Joule)
system.mem_ctrl.dram.rank1.writeEnergy              0                       # Energy for write commands per rank (pJ) (Joule)
system.mem_ctrl.dram.rank1.refreshEnergy 156733200.000000                       # Energy for refresh commands per rank (pJ) (Joule)
system.mem_ctrl.dram.rank1.actBackEnergy    338316660                       # Energy for active background per rank (pJ) (Joule)
system.mem_ctrl.dram.rank1.preBackEnergy    479145600                       # Energy for precharge background per rank (pJ) (Joule)
system.mem_ctrl.dram.rank1.actPowerDownEnergy            0                       # Energy for active power-down per rank (pJ) (Joule)
system.mem_ctrl.dram.rank1.prePowerDownEnergy            0                       # Energy for precharge power-down per rank (pJ) (Joule)
system.mem_ctrl.dram.rank1.selfRefreshEnergy            0                       # Energy for self refresh per rank (pJ) (Joule)
system.mem_ctrl.dram.rank1.totalEnergy      992687100                       # Total energy per rank (pJ) (Joule)
system.mem_ctrl.dram.rank1.averagePower    498.913829                       # Core power per rank (mW) (Watt)
system.mem_ctrl.dram.rank1.totalIdleTime            0                       # Total Idle time Per DRAM Rank (Tick)
system.mem_ctrl.dram.rank1.pwrStateTime::IDLE   1242015500                       # Time in different power states (Tick)
system.mem_ctrl.dram.rank1.pwrStateTime::REF     66300000                       # Time in different power states (Tick)
system.mem_ctrl.dram.rank1.pwrStateTime::SREF            0                       # Time in different power states (Tick)
system.mem_ctrl.dram.rank1.pwrStateTime::PRE_PDN            0                       # Time in different power states (Tick)
system.mem_ctrl.dram.rank1.pwrStateTime::ACT    681381000                       # Time in different power states (Tick)
system.mem_ctrl.dram.rank1.pwrStateTime::ACT_PDN            0                       # Time in different power states (Tick)
system.mem_ctrl.power_state.pwrStateResidencyTicks::UNDEFINED   1989696500                       # Cumulative time (in ticks) in various power states (Tick)
system.membus.transDist::ReadResp                2803                       # Transaction distribution (Count)
system.membus.transDist::WritebackDirty            14                       # Transaction distribution (Count)
system.membus.transDist::CleanEvict               147                       # Transaction distribution (Count)
system.membus.transDist::ReadExReq                809                       # Transaction distribution (Count)
system.membus.transDist::ReadExResp               809                       # Transaction distribution (Count)
system.membus.transDist::ReadSharedReq           2803                       # Transaction distribution (Count)
system.membus.pktCount_system.l2cache.mem_side_port::system.mem_ctrl.port         7385                       # Packet count per connected requestor and responder (Count)
system.membus.pktCount_system.l2cache.mem_side_port::total         7385                       # Packet count per connected requestor and responder (Count)
system.membus.pktCount::total                    7385                       # Packet count per connected requestor and responder (Count)
system.membus.pktSize_system.l2cache.mem_side_port::system.mem_ctrl.port       232064                       # Cumulative packet size per connected requestor and responder (Byte)
system.membus.pktSize_system.l2cache.mem_side_port::total       232064                       # Cumulative packet size per connected requestor and responder (Byte)
system.membus.pktSize::total                   232064                       # Cumulative packet size per connected requestor and responder (Byte)
system.membus.snoops                                0                       # Total snoops (Count)
system.membus.snoopTraffic                          0                       # Total snoop traffic (Byte)
system.membus.snoopFanout::samples               3612                       # Request fanout histogram (Count)
system.membus.snoopFanout::mean                     0                       # Request fanout histogram (Count)
system.membus.snoopFanout::stdev                    0                       # Request fanout histogram (Count)
system.membus.snoopFanout::underflows               0      0.00%      0.00% # Request fanout histogram (Count)
system.membus.snoopFanout::0                     3612    100.00%    100.00% # Request fanout histogram (Count)
system.membus.snoopFanout::1                        0      0.00%    100.00% # Request fanout histogram (Count)
system.membus.snoopFanout::overflows                0      0.00%    100.00% # Request fanout histogram (Count)
system.membus.snoopFanout::min_value                0                       # Request fanout histogram (Count)
system.membus.snoopFanout::max_value                0                       # Request fanout histogram (Count)
system.membus.snoopFanout::total                 3612                       # Request fanout histogram (Count)
system.membus.power_state.pwrStateResidencyTicks::UNDEFINED   1989696500                       # Cumulative time (in ticks) in various power states (Tick)
system.membus.reqLayer2.occupancy             1914500                       # Layer occupancy (ticks) (Tick)
system.membus.reqLayer2.utilization               0.0                       # Layer utilization (Ratio)
system.membus.respLayer0.occupancy            9796500                       # Layer occupancy (ticks) (Tick)
system.membus.respLayer0.utilization              0.0                       # Layer utilization (Ratio)
system.membus.snoop_filter.totRequests           3773                       # Total number of requests made to the snoop filter. (Count)
system.membus.snoop_filter.hitSingleRequests          161                       # Number of requests hitting in the snoop filter with a single holder of the requested data. (Count)
system.membus.snoop_filter.hitMultiRequests            0                       # Number of requests hitting in the snoop filter with multiple (>1) holders of the requested data. (Count)
system.membus.snoop_filter.totSnoops                0                       # Total number of snoops made to the snoop filter. (Count)
system.membus.snoop_filter.hitSingleSnoops            0                       # Number of snoops hitting in the snoop filter with a single holder of the requested data. (Count)
system.membus.snoop_filter.hitMultiSnoops            0                       # Number of snoops hitting in the snoop filter with multiple (>1) holders of the requested data. (Count)
system.workload.inst.arm                            0                       # number of arm instructions executed (Count)
system.workload.inst.quiesce                        0                       # number of quiesce instructions executed (Count)

---------- End Simulation Statistics   ----------
